
  EPA STORM WATER MANAGEMENT MODEL - VERSION 5.1 (Build 5.3.0.dev0)
  --------------------------------------------------------------

  
  *************
  Element Count
  *************
  Number of rain gages ...... 1
  Number of subcatchments ... 2
  Number of nodes ........... 1
  Number of links ........... 0
  Number of pollutants ...... 0
  Number of land uses ....... 0
  
  
  ****************
  Raingage Summary
  ****************
                                                      Data       Recording
  Name                 Data Source                    Type       Interval 
  ------------------------------------------------------------------------
  1                    2inch                          INTENSITY   15 min.
  
  
  ********************
  Subcatchment Summary
  ********************
  Name                       Area     Width   %Imperv    %Slope Rain Gage            Outlet              
  -----------------------------------------------------------------------------------------------------------
  S1                         3.00      1.00    100.00    1.0000 1                    S2                  
  S2                         3.00      1.00      0.00    1.0000 1                    3                   
  
  
  ************
  Node Summary
  ************
                                           Invert      Max.    Ponded    External
  Name                 Type                 Elev.     Depth      Area    Inflow  
  -------------------------------------------------------------------------------
  3                    OUTFALL               0.00      0.00       0.0
  
  
  
  *********************************************************
  NOTE: The summary statistics displayed in this report are
  based on results found at every computational time step,  
  not just on results from each reporting time step.
  *********************************************************
  
  ****************
  Analysis Options
  ****************
  Flow Units ............... CFS
  Process Models:
    Rainfall/Runoff ........ YES
    RDII ................... NO
    Snowmelt ............... NO
    Groundwater ............ NO
    Flow Routing ........... NO
    Water Quality .......... NO
  Infiltration Method ...... GREEN_AMPT
  Starting Date ............ 11/04/2014 00:00:00
  Ending Date .............. 11/07/2014 12:00:00
  Antecedent Dry Days ...... 0.0
  Report Time Step ......... 00:15:00
  Wet Time Step ............ 00:05:00
  Dry Time Step ............ 01:00:00
  
  
  ********************
  Subcatchment Results
  ********************
  
  <<< Subcatchment S1 >>>
  ---------------------------------------------------
  Date        Time        Precip.    Losses    Runoff
                            in/hr     in/hr       CFS
  ---------------------------------------------------
   11/04/2014 00:15:00      0.022     0.000    0.0000
   11/04/2014 00:30:00      0.022     0.000    0.0000
   11/04/2014 00:45:00      0.022     0.000    0.0000
   11/04/2014 01:00:00      0.022     0.000    0.0000
   11/04/2014 01:15:00      0.022     0.000    0.0000
   11/04/2014 01:30:00      0.022     0.000    0.0000
   11/04/2014 01:45:00      0.022     0.000    0.0000
   11/04/2014 02:00:00      0.026     0.000    0.0000
   11/04/2014 02:15:00      0.026     0.000    0.0000
   11/04/2014 02:30:00      0.026     0.000    0.0000
   11/04/2014 02:45:00      0.026     0.000    0.0000
   11/04/2014 03:00:00      0.026     0.000    0.0000
   11/04/2014 03:15:00      0.026     0.000    0.0000
   11/04/2014 03:30:00      0.026     0.000    0.0000
   11/04/2014 03:45:00      0.026     0.000    0.0000
   11/04/2014 04:00:00      0.032     0.000    0.0000
   11/04/2014 04:15:00      0.032     0.000    0.0000
   11/04/2014 04:30:00      0.032     0.000    0.0000
   11/04/2014 04:45:00      0.032     0.000    0.0000
   11/04/2014 05:00:00      0.032     0.000    0.0043
   11/04/2014 05:15:00      0.032     0.000    0.0050
   11/04/2014 05:30:00      0.032     0.000    0.0056
   11/04/2014 05:45:00      0.032     0.000    0.0063
   11/04/2014 06:00:00      0.036     0.000    0.0070
   11/04/2014 06:15:00      0.036     0.000    0.0078
   11/04/2014 06:30:00      0.036     0.000    0.0087
   11/04/2014 06:45:00      0.036     0.000    0.0096
   11/04/2014 07:00:00      0.044     0.000    0.0105
   11/04/2014 07:15:00      0.044     0.000    0.0117
   11/04/2014 07:30:00      0.044     0.000    0.0129
   11/04/2014 07:45:00      0.044     0.000    0.0142
   11/04/2014 08:00:00      0.052     0.000    0.0155
   11/04/2014 08:15:00      0.052     0.000    0.0171
   11/04/2014 08:30:00      0.056     0.000    0.0188
   11/04/2014 08:45:00      0.056     0.000    0.0207
   11/04/2014 09:00:00      0.064     0.000    0.0226
   11/04/2014 09:15:00      0.064     0.000    0.0249
   11/04/2014 09:30:00      0.072     0.000    0.0272
   11/04/2014 09:45:00      0.072     0.000    0.0300
   11/04/2014 10:00:00      0.092     0.000    0.0328
   11/04/2014 10:15:00      0.092     0.000    0.0366
   11/04/2014 10:30:00      0.124     0.000    0.0405
   11/04/2014 10:45:00      0.124     0.000    0.0462
   11/04/2014 11:00:00      0.192     0.000    0.0520
   11/04/2014 11:15:00      0.192     0.000    0.0620
   11/04/2014 11:30:00      0.592     0.000    0.0724
   11/04/2014 11:45:00      2.448     0.000    0.1107
   11/04/2014 12:00:00      0.288     0.000    0.3354
   11/04/2014 12:15:00      0.288     0.000    0.3586
   11/04/2014 12:30:00      0.148     0.000    0.3818
   11/04/2014 12:45:00      0.148     0.000    0.3881
   11/04/2014 13:00:00      0.108     0.000    0.3942
   11/04/2014 13:15:00      0.108     0.000    0.3954
   11/04/2014 13:30:00      0.084     0.000    0.3966
   11/04/2014 13:45:00      0.084     0.000    0.3949
   11/04/2014 14:00:00      0.060     0.000    0.3933
   11/04/2014 14:15:00      0.060     0.000    0.3888
   11/04/2014 14:30:00      0.060     0.000    0.3845
   11/04/2014 14:45:00      0.060     0.000    0.3803
   11/04/2014 15:00:00      0.060     0.000    0.3763
   11/04/2014 15:15:00      0.060     0.000    0.3724
   11/04/2014 15:30:00      0.060     0.000    0.3687
   11/04/2014 15:45:00      0.060     0.000    0.3650
   11/04/2014 16:00:00      0.036     0.000    0.3615
   11/04/2014 16:15:00      0.036     0.000    0.3553
   11/04/2014 16:30:00      0.036     0.000    0.3494
   11/04/2014 16:45:00      0.036     0.000    0.3437
   11/04/2014 17:00:00      0.036     0.000    0.3381
   11/04/2014 17:15:00      0.036     0.000    0.3328
   11/04/2014 17:30:00      0.036     0.000    0.3276
   11/04/2014 17:45:00      0.036     0.000    0.3226
   11/04/2014 18:00:00      0.036     0.000    0.3178
   11/04/2014 18:15:00      0.036     0.000    0.3131
   11/04/2014 18:30:00      0.036     0.000    0.3086
   11/04/2014 18:45:00      0.036     0.000    0.3042
   11/04/2014 19:00:00      0.036     0.000    0.3000
   11/04/2014 19:15:00      0.036     0.000    0.2959
   11/04/2014 19:30:00      0.036     0.000    0.2919
   11/04/2014 19:45:00      0.036     0.000    0.2881
   11/04/2014 20:00:00      0.024     0.000    0.2844
   11/04/2014 20:15:00      0.024     0.000    0.2795
   11/04/2014 20:30:00      0.024     0.000    0.2748
   11/04/2014 20:45:00      0.024     0.000    0.2702
   11/04/2014 21:00:00      0.024     0.000    0.2658
   11/04/2014 21:15:00      0.024     0.000    0.2616
   11/04/2014 21:30:00      0.024     0.000    0.2575
   11/04/2014 21:45:00      0.024     0.000    0.2535
   11/04/2014 22:00:00      0.024     0.000    0.2496
   11/04/2014 22:15:00      0.024     0.000    0.2458
   11/04/2014 22:30:00      0.024     0.000    0.2422
   11/04/2014 22:45:00      0.024     0.000    0.2386
   11/04/2014 23:00:00      0.024     0.000    0.2352
   11/04/2014 23:15:00      0.024     0.000    0.2319
   11/04/2014 23:30:00      0.024     0.000    0.2287
   11/04/2014 23:45:00      0.024     0.000    0.2255
   11/05/2014 00:00:00      0.000     0.000    0.2225
   11/05/2014 00:15:00      0.000     0.000    0.2173
   11/05/2014 00:30:00      0.000     0.000    0.2122
   11/05/2014 00:45:00      0.000     0.000    0.2073
   11/05/2014 01:00:00      0.000     0.000    0.2026
   11/05/2014 01:15:00      0.000     0.000    0.1980
   11/05/2014 01:30:00      0.000     0.000    0.1936
   11/05/2014 01:45:00      0.000     0.000    0.1893
   11/05/2014 02:00:00      0.000     0.000    0.1851
   11/05/2014 02:15:00      0.000     0.000    0.1810
   11/05/2014 02:30:00      0.000     0.000    0.1771
   11/05/2014 02:45:00      0.000     0.000    0.1733
   11/05/2014 03:00:00      0.000     0.000    0.1696
   11/05/2014 03:15:00      0.000     0.000    0.1661
   11/05/2014 03:30:00      0.000     0.000    0.1626
   11/05/2014 03:45:00      0.000     0.000    0.1592
   11/05/2014 04:00:00      0.000     0.000    0.1559
   11/05/2014 04:15:00      0.000     0.000    0.1528
   11/05/2014 04:30:00      0.000     0.000    0.1497
   11/05/2014 04:45:00      0.000     0.000    0.1467
   11/05/2014 05:00:00      0.000     0.000    0.1437
   11/05/2014 05:15:00      0.000     0.000    0.1409
   11/05/2014 05:30:00      0.000     0.000    0.1381
   11/05/2014 05:45:00      0.000     0.000    0.1354
   11/05/2014 06:00:00      0.000     0.000    0.1328
   11/05/2014 06:15:00      0.000     0.000    0.1303
   11/05/2014 06:30:00      0.000     0.000    0.1278
   11/05/2014 06:45:00      0.000     0.000    0.1254
   11/05/2014 07:00:00      0.000     0.000    0.1231
   11/05/2014 07:15:00      0.000     0.000    0.1208
   11/05/2014 07:30:00      0.000     0.000    0.1185
   11/05/2014 07:45:00      0.000     0.000    0.1164
   11/05/2014 08:00:00      0.000     0.000    0.1143
   11/05/2014 08:15:00      0.000     0.000    0.1122
   11/05/2014 08:30:00      0.000     0.000    0.1102
   11/05/2014 08:45:00      0.000     0.000    0.1082
   11/05/2014 09:00:00      0.000     0.000    0.1063
   11/05/2014 09:15:00      0.000     0.000    0.1044
   11/05/2014 09:30:00      0.000     0.000    0.1026
   11/05/2014 09:45:00      0.000     0.000    0.1008
   11/05/2014 10:00:00      0.000     0.000    0.0991
   11/05/2014 10:15:00      0.000     0.000    0.0974
   11/05/2014 10:30:00      0.000     0.000    0.0958
   11/05/2014 10:45:00      0.000     0.000    0.0942
   11/05/2014 11:00:00      0.000     0.000    0.0926
   11/05/2014 11:15:00      0.000     0.000    0.0910
   11/05/2014 11:30:00      0.000     0.000    0.0895
   11/05/2014 11:45:00      0.000     0.000    0.0881
   11/05/2014 12:00:00      0.000     0.000    0.0866
   11/05/2014 12:15:00      0.000     0.000    0.0852
   11/05/2014 12:30:00      0.000     0.000    0.0839
   11/05/2014 12:45:00      0.000     0.000    0.0825
   11/05/2014 13:00:00      0.000     0.000    0.0812
   11/05/2014 13:15:00      0.000     0.000    0.0799
   11/05/2014 13:30:00      0.000     0.000    0.0787
   11/05/2014 13:45:00      0.000     0.000    0.0775
   11/05/2014 14:00:00      0.000     0.000    0.0763
   11/05/2014 14:15:00      0.000     0.000    0.0751
   11/05/2014 14:30:00      0.000     0.000    0.0739
   11/05/2014 14:45:00      0.000     0.000    0.0728
   11/05/2014 15:00:00      0.000     0.000    0.0717
   11/05/2014 15:15:00      0.000     0.000    0.0706
   11/05/2014 15:30:00      0.000     0.000    0.0696
   11/05/2014 15:45:00      0.000     0.000    0.0686
   11/05/2014 16:00:00      0.000     0.000    0.0675
   11/05/2014 16:15:00      0.000     0.000    0.0666
   11/05/2014 16:30:00      0.000     0.000    0.0656
   11/05/2014 16:45:00      0.000     0.000    0.0646
   11/05/2014 17:00:00      0.000     0.000    0.0637
   11/05/2014 17:15:00      0.000     0.000    0.0628
   11/05/2014 17:30:00      0.000     0.000    0.0619
   11/05/2014 17:45:00      0.000     0.000    0.0610
   11/05/2014 18:00:00      0.000     0.000    0.0602
   11/05/2014 18:15:00      0.000     0.000    0.0593
   11/05/2014 18:30:00      0.000     0.000    0.0585
   11/05/2014 18:45:00      0.000     0.000    0.0577
   11/05/2014 19:00:00      0.000     0.000    0.0569
   11/05/2014 19:15:00      0.000     0.000    0.0561
   11/05/2014 19:30:00      0.000     0.000    0.0553
   11/05/2014 19:45:00      0.000     0.000    0.0546
   11/05/2014 20:00:00      0.000     0.000    0.0539
   11/05/2014 20:15:00      0.000     0.000    0.0531
   11/05/2014 20:30:00      0.000     0.000    0.0524
   11/05/2014 20:45:00      0.000     0.000    0.0517
   11/05/2014 21:00:00      0.000     0.000    0.0510
   11/05/2014 21:15:00      0.000     0.000    0.0504
   11/05/2014 21:30:00      0.000     0.000    0.0497
   11/05/2014 21:45:00      0.000     0.000    0.0491
   11/05/2014 22:00:00      0.000     0.000    0.0484
   11/05/2014 22:15:00      0.000     0.000    0.0478
   11/05/2014 22:30:00      0.000     0.000    0.0472
   11/05/2014 22:45:00      0.000     0.000    0.0466
   11/05/2014 23:00:00      0.000     0.000    0.0460
   11/05/2014 23:15:00      0.000     0.000    0.0454
   11/05/2014 23:30:00      0.000     0.000    0.0449
   11/05/2014 23:45:00      0.000     0.000    0.0443
   11/06/2014 00:00:00      0.000     0.000    0.0438
   11/06/2014 00:15:00      0.000     0.000    0.0432
   11/06/2014 00:30:00      0.000     0.000    0.0427
   11/06/2014 00:45:00      0.000     0.000    0.0422
   11/06/2014 01:00:00      0.000     0.000    0.0417
   11/06/2014 01:15:00      0.000     0.000    0.0411
   11/06/2014 01:30:00      0.000     0.000    0.0407
   11/06/2014 01:45:00      0.000     0.000    0.0402
   11/06/2014 02:00:00      0.000     0.000    0.0397
   11/06/2014 02:15:00      0.000     0.000    0.0392
   11/06/2014 02:30:00      0.000     0.000    0.0388
   11/06/2014 02:45:00      0.000     0.000    0.0383
   11/06/2014 03:00:00      0.000     0.000    0.0378
   11/06/2014 03:15:00      0.000     0.000    0.0374
   11/06/2014 03:30:00      0.000     0.000    0.0370
   11/06/2014 03:45:00      0.000     0.000    0.0365
   11/06/2014 04:00:00      0.000     0.000    0.0361
   11/06/2014 04:15:00      0.000     0.000    0.0357
   11/06/2014 04:30:00      0.000     0.000    0.0353
   11/06/2014 04:45:00      0.000     0.000    0.0349
   11/06/2014 05:00:00      0.000     0.000    0.0345
   11/06/2014 05:15:00      0.000     0.000    0.0341
   11/06/2014 05:30:00      0.000     0.000    0.0337
   11/06/2014 05:45:00      0.000     0.000    0.0334
   11/06/2014 06:00:00      0.000     0.000    0.0330
   11/06/2014 06:15:00      0.000     0.000    0.0326
   11/06/2014 06:30:00      0.000     0.000    0.0323
   11/06/2014 06:45:00      0.000     0.000    0.0319
   11/06/2014 07:00:00      0.000     0.000    0.0316
   11/06/2014 07:15:00      0.000     0.000    0.0312
   11/06/2014 07:30:00      0.000     0.000    0.0309
   11/06/2014 07:45:00      0.000     0.000    0.0306
   11/06/2014 08:00:00      0.000     0.000    0.0302
   11/06/2014 08:15:00      0.000     0.000    0.0299
   11/06/2014 08:30:00      0.000     0.000    0.0296
   11/06/2014 08:45:00      0.000     0.000    0.0293
   11/06/2014 09:00:00      0.000     0.000    0.0290
   11/06/2014 09:15:00      0.000     0.000    0.0287
   11/06/2014 09:30:00      0.000     0.000    0.0284
   11/06/2014 09:45:00      0.000     0.000    0.0281
   11/06/2014 10:00:00      0.000     0.000    0.0278
   11/06/2014 10:15:00      0.000     0.000    0.0275
   11/06/2014 10:30:00      0.000     0.000    0.0272
   11/06/2014 10:45:00      0.000     0.000    0.0269
   11/06/2014 11:00:00      0.000     0.000    0.0267
   11/06/2014 11:15:00      0.000     0.000    0.0264
   11/06/2014 11:30:00      0.000     0.000    0.0261
   11/06/2014 11:45:00      0.000     0.000    0.0259
   11/06/2014 12:00:00      0.000     0.000    0.0256
   11/06/2014 12:15:00      0.000     0.000    0.0253
   11/06/2014 12:30:00      0.000     0.000    0.0251
   11/06/2014 12:45:00      0.000     0.000    0.0248
   11/06/2014 13:00:00      0.000     0.000    0.0246
   11/06/2014 13:15:00      0.000     0.000    0.0244
   11/06/2014 13:30:00      0.000     0.000    0.0241
   11/06/2014 13:45:00      0.000     0.000    0.0239
   11/06/2014 14:00:00      0.000     0.000    0.0237
   11/06/2014 14:15:00      0.000     0.000    0.0234
   11/06/2014 14:30:00      0.000     0.000    0.0232
   11/06/2014 14:45:00      0.000     0.000    0.0230
   11/06/2014 15:00:00      0.000     0.000    0.0228
   11/06/2014 15:15:00      0.000     0.000    0.0225
   11/06/2014 15:30:00      0.000     0.000    0.0223
   11/06/2014 15:45:00      0.000     0.000    0.0221
   11/06/2014 16:00:00      0.000     0.000    0.0219
   11/06/2014 16:15:00      0.000     0.000    0.0217
   11/06/2014 16:30:00      0.000     0.000    0.0215
   11/06/2014 16:45:00      0.000     0.000    0.0213
   11/06/2014 17:00:00      0.000     0.000    0.0211
   11/06/2014 17:15:00      0.000     0.000    0.0209
   11/06/2014 17:30:00      0.000     0.000    0.0207
   11/06/2014 17:45:00      0.000     0.000    0.0205
   11/06/2014 18:00:00      0.000     0.000    0.0203
   11/06/2014 18:15:00      0.000     0.000    0.0202
   11/06/2014 18:30:00      0.000     0.000    0.0200
   11/06/2014 18:45:00      0.000     0.000    0.0198
   11/06/2014 19:00:00      0.000     0.000    0.0196
   11/06/2014 19:15:00      0.000     0.000    0.0194
   11/06/2014 19:30:00      0.000     0.000    0.0193
   11/06/2014 19:45:00      0.000     0.000    0.0191
   11/06/2014 20:00:00      0.000     0.000    0.0189
   11/06/2014 20:15:00      0.000     0.000    0.0188
   11/06/2014 20:30:00      0.000     0.000    0.0186
   11/06/2014 20:45:00      0.000     0.000    0.0184
   11/06/2014 21:00:00      0.000     0.000    0.0183
   11/06/2014 21:15:00      0.000     0.000    0.0181
   11/06/2014 21:30:00      0.000     0.000    0.0179
   11/06/2014 21:45:00      0.000     0.000    0.0178
   11/06/2014 22:00:00      0.000     0.000    0.0176
   11/06/2014 22:15:00      0.000     0.000    0.0175
   11/06/2014 22:30:00      0.000     0.000    0.0173
   11/06/2014 22:45:00      0.000     0.000    0.0172
   11/06/2014 23:00:00      0.000     0.000    0.0170
   11/06/2014 23:15:00      0.000     0.000    0.0169
   11/06/2014 23:30:00      0.000     0.000    0.0168
   11/06/2014 23:45:00      0.000     0.000    0.0166
   11/07/2014 00:00:00      0.000     0.000    0.0165
   11/07/2014 00:15:00      0.000     0.000    0.0163
   11/07/2014 00:30:00      0.000     0.000    0.0162
   11/07/2014 00:45:00      0.000     0.000    0.0161
   11/07/2014 01:00:00      0.000     0.000    0.0159
   11/07/2014 01:15:00      0.000     0.000    0.0158
   11/07/2014 01:30:00      0.000     0.000    0.0157
   11/07/2014 01:45:00      0.000     0.000    0.0155
   11/07/2014 02:00:00      0.000     0.000    0.0154
   11/07/2014 02:15:00      0.000     0.000    0.0153
   11/07/2014 02:30:00      0.000     0.000    0.0152
   11/07/2014 02:45:00      0.000     0.000    0.0150
   11/07/2014 03:00:00      0.000     0.000    0.0149
   11/07/2014 03:15:00      0.000     0.000    0.0148
   11/07/2014 03:30:00      0.000     0.000    0.0147
   11/07/2014 03:45:00      0.000     0.000    0.0146
   11/07/2014 04:00:00      0.000     0.000    0.0144
   11/07/2014 04:15:00      0.000     0.000    0.0143
   11/07/2014 04:30:00      0.000     0.000    0.0142
   11/07/2014 04:45:00      0.000     0.000    0.0141
   11/07/2014 05:00:00      0.000     0.000    0.0140
   11/07/2014 05:15:00      0.000     0.000    0.0139
   11/07/2014 05:30:00      0.000     0.000    0.0138
   11/07/2014 05:45:00      0.000     0.000    0.0137
   11/07/2014 06:00:00      0.000     0.000    0.0136
   11/07/2014 06:15:00      0.000     0.000    0.0135
   11/07/2014 06:30:00      0.000     0.000    0.0134
   11/07/2014 06:45:00      0.000     0.000    0.0132
   11/07/2014 07:00:00      0.000     0.000    0.0131
   11/07/2014 07:15:00      0.000     0.000    0.0130
   11/07/2014 07:30:00      0.000     0.000    0.0129
   11/07/2014 07:45:00      0.000     0.000    0.0128
   11/07/2014 08:00:00      0.000     0.000    0.0128
   11/07/2014 08:15:00      0.000     0.000    0.0127
   11/07/2014 08:30:00      0.000     0.000    0.0126
   11/07/2014 08:45:00      0.000     0.000    0.0125
   11/07/2014 09:00:00      0.000     0.000    0.0124
   11/07/2014 09:15:00      0.000     0.000    0.0123
   11/07/2014 09:30:00      0.000     0.000    0.0122
   11/07/2014 09:45:00      0.000     0.000    0.0121
   11/07/2014 10:00:00      0.000     0.000    0.0120
   11/07/2014 10:15:00      0.000     0.000    0.0119
   11/07/2014 10:30:00      0.000     0.000    0.0118
   11/07/2014 10:45:00      0.000     0.000    0.0117
   11/07/2014 11:00:00      0.000     0.000    0.0117
   11/07/2014 11:15:00      0.000     0.000    0.0116
   11/07/2014 11:30:00      0.000     0.000    0.0115
   11/07/2014 11:45:00      0.000     0.000    0.0114
   11/07/2014 12:00:00      0.000     0.000    0.0113
  
  
  <<< Subcatchment S2 >>>
  ---------------------------------------------------
  Date        Time        Precip.    Losses    Runoff
                            in/hr     in/hr       CFS
  ---------------------------------------------------
   11/04/2014 00:15:00      0.022     0.022    0.0000
   11/04/2014 00:30:00      0.022     0.022    0.0000
   11/04/2014 00:45:00      0.022     0.022    0.0000
   11/04/2014 01:00:00      0.022     0.022    0.0000
   11/04/2014 01:15:00      0.022     0.022    0.0000
   11/04/2014 01:30:00      0.022     0.022    0.0000
   11/04/2014 01:45:00      0.022     0.022    0.0000
   11/04/2014 02:00:00      0.026     0.022    0.0000
   11/04/2014 02:15:00      0.026     0.026    0.0000
   11/04/2014 02:30:00      0.026     0.026    0.0000
   11/04/2014 02:45:00      0.026     0.026    0.0000
   11/04/2014 03:00:00      0.026     0.026    0.0000
   11/04/2014 03:15:00      0.026     0.026    0.0000
   11/04/2014 03:30:00      0.026     0.026    0.0000
   11/04/2014 03:45:00      0.026     0.027    0.0000
   11/04/2014 04:00:00      0.032     0.027    0.0000
   11/04/2014 04:15:00      0.032     0.033    0.0000
   11/04/2014 04:30:00      0.032     0.033    0.0000
   11/04/2014 04:45:00      0.032     0.033    0.0000
   11/04/2014 05:00:00      0.032     0.033    0.0000
   11/04/2014 05:15:00      0.032     0.034    0.0000
   11/04/2014 05:30:00      0.032     0.034    0.0000
   11/04/2014 05:45:00      0.032     0.034    0.0000
   11/04/2014 06:00:00      0.036     0.034    0.0000
   11/04/2014 06:15:00      0.036     0.038    0.0000
   11/04/2014 06:30:00      0.036     0.039    0.0000
   11/04/2014 06:45:00      0.036     0.039    0.0000
   11/04/2014 07:00:00      0.044     0.039    0.0000
   11/04/2014 07:15:00      0.044     0.048    0.0000
   11/04/2014 07:30:00      0.044     0.048    0.0000
   11/04/2014 07:45:00      0.044     0.049    0.0000
   11/04/2014 08:00:00      0.052     0.049    0.0000
   11/04/2014 08:15:00      0.052     0.057    0.0000
   11/04/2014 08:30:00      0.056     0.055    0.0000
   11/04/2014 08:45:00      0.056     0.052    0.0000
   11/04/2014 09:00:00      0.064     0.051    0.0000
   11/04/2014 09:15:00      0.064     0.049    0.0000
   11/04/2014 09:30:00      0.072     0.048    0.0000
   11/04/2014 09:45:00      0.072     0.046    0.0000
   11/04/2014 10:00:00      0.092     0.045    0.0000
   11/04/2014 10:15:00      0.092     0.044    0.0000
   11/04/2014 10:30:00      0.124     0.043    0.0000
   11/04/2014 10:45:00      0.124     0.042    0.0000
   11/04/2014 11:00:00      0.192     0.041    0.0000
   11/04/2014 11:15:00      0.192     0.041    0.0000
   11/04/2014 11:30:00      0.592     0.040    0.0000
   11/04/2014 11:45:00      2.448     0.040    0.0031
   11/04/2014 12:00:00      0.288     0.040    0.0203
   11/04/2014 12:15:00      0.288     0.040    0.0236
   11/04/2014 12:30:00      0.148     0.039    0.0273
   11/04/2014 12:45:00      0.148     0.039    0.0297
   11/04/2014 13:00:00      0.108     0.038    0.0322
   11/04/2014 13:15:00      0.108     0.038    0.0344
   11/04/2014 13:30:00      0.084     0.038    0.0366
   11/04/2014 13:45:00      0.084     0.037    0.0385
   11/04/2014 14:00:00      0.060     0.037    0.0405
   11/04/2014 14:15:00      0.060     0.036    0.0422
   11/04/2014 14:30:00      0.060     0.036    0.0440
   11/04/2014 14:45:00      0.060     0.036    0.0457
   11/04/2014 15:00:00      0.060     0.035    0.0474
   11/04/2014 15:15:00      0.060     0.035    0.0492
   11/04/2014 15:30:00      0.060     0.035    0.0509
   11/04/2014 15:45:00      0.060     0.034    0.0527
   11/04/2014 16:00:00      0.036     0.034    0.0544
   11/04/2014 16:15:00      0.036     0.034    0.0559
   11/04/2014 16:30:00      0.036     0.033    0.0573
   11/04/2014 16:45:00      0.036     0.033    0.0587
   11/04/2014 17:00:00      0.036     0.033    0.0600
   11/04/2014 17:15:00      0.036     0.032    0.0614
   11/04/2014 17:30:00      0.036     0.032    0.0627
   11/04/2014 17:45:00      0.036     0.032    0.0641
   11/04/2014 18:00:00      0.036     0.032    0.0654
   11/04/2014 18:15:00      0.036     0.032    0.0667
   11/04/2014 18:30:00      0.036     0.031    0.0680
   11/04/2014 18:45:00      0.036     0.031    0.0692
   11/04/2014 19:00:00      0.036     0.031    0.0705
   11/04/2014 19:15:00      0.036     0.031    0.0717
   11/04/2014 19:30:00      0.036     0.030    0.0729
   11/04/2014 19:45:00      0.036     0.030    0.0741
   11/04/2014 20:00:00      0.024     0.030    0.0753
   11/04/2014 20:15:00      0.024     0.030    0.0763
   11/04/2014 20:30:00      0.024     0.030    0.0772
   11/04/2014 20:45:00      0.024     0.030    0.0782
   11/04/2014 21:00:00      0.024     0.029    0.0791
   11/04/2014 21:15:00      0.024     0.029    0.0800
   11/04/2014 21:30:00      0.024     0.029    0.0809
   11/04/2014 21:45:00      0.024     0.029    0.0817
   11/04/2014 22:00:00      0.024     0.029    0.0826
   11/04/2014 22:15:00      0.024     0.029    0.0834
   11/04/2014 22:30:00      0.024     0.028    0.0842
   11/04/2014 22:45:00      0.024     0.028    0.0850
   11/04/2014 23:00:00      0.024     0.028    0.0857
   11/04/2014 23:15:00      0.024     0.028    0.0865
   11/04/2014 23:30:00      0.024     0.028    0.0872
   11/04/2014 23:45:00      0.024     0.028    0.0879
   11/05/2014 00:00:00      0.000     0.028    0.0886
   11/05/2014 00:15:00      0.000     0.027    0.0889
   11/05/2014 00:30:00      0.000     0.027    0.0891
   11/05/2014 00:45:00      0.000     0.027    0.0893
   11/05/2014 01:00:00      0.000     0.027    0.0895
   11/05/2014 01:15:00      0.000     0.027    0.0897
   11/05/2014 01:30:00      0.000     0.027    0.0898
   11/05/2014 01:45:00      0.000     0.027    0.0899
   11/05/2014 02:00:00      0.000     0.026    0.0900
   11/05/2014 02:15:00      0.000     0.026    0.0901
   11/05/2014 02:30:00      0.000     0.026    0.0902
   11/05/2014 02:45:00      0.000     0.026    0.0902
   11/05/2014 03:00:00      0.000     0.026    0.0902
   11/05/2014 03:15:00      0.000     0.026    0.0902
   11/05/2014 03:30:00      0.000     0.026    0.0902
   11/05/2014 03:45:00      0.000     0.026    0.0902
   11/05/2014 04:00:00      0.000     0.026    0.0901
   11/05/2014 04:15:00      0.000     0.025    0.0901
   11/05/2014 04:30:00      0.000     0.025    0.0900
   11/05/2014 04:45:00      0.000     0.025    0.0899
   11/05/2014 05:00:00      0.000     0.025    0.0898
   11/05/2014 05:15:00      0.000     0.025    0.0896
   11/05/2014 05:30:00      0.000     0.025    0.0895
   11/05/2014 05:45:00      0.000     0.025    0.0893
   11/05/2014 06:00:00      0.000     0.025    0.0892
   11/05/2014 06:15:00      0.000     0.025    0.0890
   11/05/2014 06:30:00      0.000     0.025    0.0888
   11/05/2014 06:45:00      0.000     0.024    0.0886
   11/05/2014 07:00:00      0.000     0.024    0.0884
   11/05/2014 07:15:00      0.000     0.024    0.0882
   11/05/2014 07:30:00      0.000     0.024    0.0880
   11/05/2014 07:45:00      0.000     0.024    0.0877
   11/05/2014 08:00:00      0.000     0.024    0.0875
   11/05/2014 08:15:00      0.000     0.024    0.0872
   11/05/2014 08:30:00      0.000     0.024    0.0870
   11/05/2014 08:45:00      0.000     0.024    0.0867
   11/05/2014 09:00:00      0.000     0.024    0.0864
   11/05/2014 09:15:00      0.000     0.024    0.0861
   11/05/2014 09:30:00      0.000     0.024    0.0858
   11/05/2014 09:45:00      0.000     0.023    0.0855
   11/05/2014 10:00:00      0.000     0.023    0.0852
   11/05/2014 10:15:00      0.000     0.023    0.0849
   11/05/2014 10:30:00      0.000     0.023    0.0846
   11/05/2014 10:45:00      0.000     0.023    0.0843
   11/05/2014 11:00:00      0.000     0.023    0.0840
   11/05/2014 11:15:00      0.000     0.023    0.0836
   11/05/2014 11:30:00      0.000     0.023    0.0833
   11/05/2014 11:45:00      0.000     0.023    0.0829
   11/05/2014 12:00:00      0.000     0.023    0.0826
   11/05/2014 12:15:00      0.000     0.023    0.0823
   11/05/2014 12:30:00      0.000     0.023    0.0819
   11/05/2014 12:45:00      0.000     0.023    0.0815
   11/05/2014 13:00:00      0.000     0.023    0.0812
   11/05/2014 13:15:00      0.000     0.022    0.0808
   11/05/2014 13:30:00      0.000     0.022    0.0805
   11/05/2014 13:45:00      0.000     0.022    0.0801
   11/05/2014 14:00:00      0.000     0.022    0.0797
   11/05/2014 14:15:00      0.000     0.022    0.0793
   11/05/2014 14:30:00      0.000     0.022    0.0790
   11/05/2014 14:45:00      0.000     0.022    0.0786
   11/05/2014 15:00:00      0.000     0.022    0.0782
   11/05/2014 15:15:00      0.000     0.022    0.0778
   11/05/2014 15:30:00      0.000     0.022    0.0774
   11/05/2014 15:45:00      0.000     0.022    0.0770
   11/05/2014 16:00:00      0.000     0.022    0.0766
   11/05/2014 16:15:00      0.000     0.022    0.0763
   11/05/2014 16:30:00      0.000     0.022    0.0759
   11/05/2014 16:45:00      0.000     0.022    0.0755
   11/05/2014 17:00:00      0.000     0.022    0.0751
   11/05/2014 17:15:00      0.000     0.021    0.0747
   11/05/2014 17:30:00      0.000     0.021    0.0743
   11/05/2014 17:45:00      0.000     0.021    0.0739
   11/05/2014 18:00:00      0.000     0.021    0.0735
   11/05/2014 18:15:00      0.000     0.021    0.0731
   11/05/2014 18:30:00      0.000     0.021    0.0727
   11/05/2014 18:45:00      0.000     0.021    0.0723
   11/05/2014 19:00:00      0.000     0.021    0.0719
   11/05/2014 19:15:00      0.000     0.021    0.0715
   11/05/2014 19:30:00      0.000     0.021    0.0711
   11/05/2014 19:45:00      0.000     0.021    0.0707
   11/05/2014 20:00:00      0.000     0.021    0.0703
   11/05/2014 20:15:00      0.000     0.021    0.0699
   11/05/2014 20:30:00      0.000     0.021    0.0695
   11/05/2014 20:45:00      0.000     0.021    0.0691
   11/05/2014 21:00:00      0.000     0.021    0.0687
   11/05/2014 21:15:00      0.000     0.021    0.0683
   11/05/2014 21:30:00      0.000     0.021    0.0679
   11/05/2014 21:45:00      0.000     0.021    0.0675
   11/05/2014 22:00:00      0.000     0.021    0.0671
   11/05/2014 22:15:00      0.000     0.020    0.0667
   11/05/2014 22:30:00      0.000     0.020    0.0663
   11/05/2014 22:45:00      0.000     0.020    0.0659
   11/05/2014 23:00:00      0.000     0.020    0.0655
   11/05/2014 23:15:00      0.000     0.020    0.0651
   11/05/2014 23:30:00      0.000     0.020    0.0647
   11/05/2014 23:45:00      0.000     0.020    0.0643
   11/06/2014 00:00:00      0.000     0.020    0.0639
   11/06/2014 00:15:00      0.000     0.020    0.0635
   11/06/2014 00:30:00      0.000     0.020    0.0631
   11/06/2014 00:45:00      0.000     0.020    0.0627
   11/06/2014 01:00:00      0.000     0.020    0.0623
   11/06/2014 01:15:00      0.000     0.020    0.0620
   11/06/2014 01:30:00      0.000     0.020    0.0616
   11/06/2014 01:45:00      0.000     0.020    0.0612
   11/06/2014 02:00:00      0.000     0.020    0.0608
   11/06/2014 02:15:00      0.000     0.020    0.0604
   11/06/2014 02:30:00      0.000     0.020    0.0600
   11/06/2014 02:45:00      0.000     0.020    0.0596
   11/06/2014 03:00:00      0.000     0.020    0.0593
   11/06/2014 03:15:00      0.000     0.020    0.0589
   11/06/2014 03:30:00      0.000     0.020    0.0585
   11/06/2014 03:45:00      0.000     0.020    0.0581
   11/06/2014 04:00:00      0.000     0.020    0.0577
   11/06/2014 04:15:00      0.000     0.020    0.0574
   11/06/2014 04:30:00      0.000     0.019    0.0570
   11/06/2014 04:45:00      0.000     0.019    0.0566
   11/06/2014 05:00:00      0.000     0.019    0.0563
   11/06/2014 05:15:00      0.000     0.019    0.0559
   11/06/2014 05:30:00      0.000     0.019    0.0555
   11/06/2014 05:45:00      0.000     0.019    0.0551
   11/06/2014 06:00:00      0.000     0.019    0.0548
   11/06/2014 06:15:00      0.000     0.019    0.0544
   11/06/2014 06:30:00      0.000     0.019    0.0541
   11/06/2014 06:45:00      0.000     0.019    0.0537
   11/06/2014 07:00:00      0.000     0.019    0.0533
   11/06/2014 07:15:00      0.000     0.019    0.0530
   11/06/2014 07:30:00      0.000     0.019    0.0526
   11/06/2014 07:45:00      0.000     0.019    0.0523
   11/06/2014 08:00:00      0.000     0.019    0.0519
   11/06/2014 08:15:00      0.000     0.019    0.0516
   11/06/2014 08:30:00      0.000     0.019    0.0512
   11/06/2014 08:45:00      0.000     0.019    0.0509
   11/06/2014 09:00:00      0.000     0.019    0.0505
   11/06/2014 09:15:00      0.000     0.019    0.0502
   11/06/2014 09:30:00      0.000     0.019    0.0498
   11/06/2014 09:45:00      0.000     0.019    0.0495
   11/06/2014 10:00:00      0.000     0.019    0.0491
   11/06/2014 10:15:00      0.000     0.019    0.0488
   11/06/2014 10:30:00      0.000     0.019    0.0485
   11/06/2014 10:45:00      0.000     0.019    0.0481
   11/06/2014 11:00:00      0.000     0.019    0.0478
   11/06/2014 11:15:00      0.000     0.019    0.0474
   11/06/2014 11:30:00      0.000     0.019    0.0471
   11/06/2014 11:45:00      0.000     0.019    0.0468
   11/06/2014 12:00:00      0.000     0.019    0.0465
   11/06/2014 12:15:00      0.000     0.019    0.0461
   11/06/2014 12:30:00      0.000     0.018    0.0458
   11/06/2014 12:45:00      0.000     0.018    0.0455
   11/06/2014 13:00:00      0.000     0.018    0.0452
   11/06/2014 13:15:00      0.000     0.018    0.0448
   11/06/2014 13:30:00      0.000     0.018    0.0445
   11/06/2014 13:45:00      0.000     0.018    0.0442
   11/06/2014 14:00:00      0.000     0.018    0.0439
   11/06/2014 14:15:00      0.000     0.018    0.0436
   11/06/2014 14:30:00      0.000     0.018    0.0433
   11/06/2014 14:45:00      0.000     0.018    0.0429
   11/06/2014 15:00:00      0.000     0.018    0.0426
   11/06/2014 15:15:00      0.000     0.018    0.0423
   11/06/2014 15:30:00      0.000     0.018    0.0420
   11/06/2014 15:45:00      0.000     0.018    0.0417
   11/06/2014 16:00:00      0.000     0.018    0.0414
   11/06/2014 16:15:00      0.000     0.018    0.0411
   11/06/2014 16:30:00      0.000     0.018    0.0408
   11/06/2014 16:45:00      0.000     0.018    0.0405
   11/06/2014 17:00:00      0.000     0.018    0.0402
   11/06/2014 17:15:00      0.000     0.018    0.0399
   11/06/2014 17:30:00      0.000     0.018    0.0396
   11/06/2014 17:45:00      0.000     0.018    0.0393
   11/06/2014 18:00:00      0.000     0.018    0.0390
   11/06/2014 18:15:00      0.000     0.018    0.0387
   11/06/2014 18:30:00      0.000     0.018    0.0385
   11/06/2014 18:45:00      0.000     0.018    0.0382
   11/06/2014 19:00:00      0.000     0.018    0.0379
   11/06/2014 19:15:00      0.000     0.018    0.0376
   11/06/2014 19:30:00      0.000     0.018    0.0373
   11/06/2014 19:45:00      0.000     0.018    0.0370
   11/06/2014 20:00:00      0.000     0.018    0.0368
   11/06/2014 20:15:00      0.000     0.018    0.0365
   11/06/2014 20:30:00      0.000     0.018    0.0362
   11/06/2014 20:45:00      0.000     0.018    0.0359
   11/06/2014 21:00:00      0.000     0.018    0.0357
   11/06/2014 21:15:00      0.000     0.018    0.0354
   11/06/2014 21:30:00      0.000     0.018    0.0351
   11/06/2014 21:45:00      0.000     0.018    0.0349
   11/06/2014 22:00:00      0.000     0.018    0.0346
   11/06/2014 22:15:00      0.000     0.018    0.0343
   11/06/2014 22:30:00      0.000     0.017    0.0341
   11/06/2014 22:45:00      0.000     0.017    0.0338
   11/06/2014 23:00:00      0.000     0.017    0.0335
   11/06/2014 23:15:00      0.000     0.017    0.0333
   11/06/2014 23:30:00      0.000     0.017    0.0330
   11/06/2014 23:45:00      0.000     0.017    0.0328
   11/07/2014 00:00:00      0.000     0.017    0.0325
   11/07/2014 00:15:00      0.000     0.017    0.0323
   11/07/2014 00:30:00      0.000     0.017    0.0320
   11/07/2014 00:45:00      0.000     0.017    0.0318
   11/07/2014 01:00:00      0.000     0.017    0.0315
   11/07/2014 01:15:00      0.000     0.017    0.0313
   11/07/2014 01:30:00      0.000     0.017    0.0310
   11/07/2014 01:45:00      0.000     0.017    0.0308
   11/07/2014 02:00:00      0.000     0.017    0.0305
   11/07/2014 02:15:00      0.000     0.017    0.0303
   11/07/2014 02:30:00      0.000     0.017    0.0300
   11/07/2014 02:45:00      0.000     0.017    0.0298
   11/07/2014 03:00:00      0.000     0.017    0.0296
   11/07/2014 03:15:00      0.000     0.017    0.0293
   11/07/2014 03:30:00      0.000     0.017    0.0291
   11/07/2014 03:45:00      0.000     0.017    0.0289
   11/07/2014 04:00:00      0.000     0.017    0.0286
   11/07/2014 04:15:00      0.000     0.017    0.0284
   11/07/2014 04:30:00      0.000     0.017    0.0282
   11/07/2014 04:45:00      0.000     0.017    0.0279
   11/07/2014 05:00:00      0.000     0.017    0.0277
   11/07/2014 05:15:00      0.000     0.017    0.0275
   11/07/2014 05:30:00      0.000     0.017    0.0273
   11/07/2014 05:45:00      0.000     0.017    0.0270
   11/07/2014 06:00:00      0.000     0.017    0.0268
   11/07/2014 06:15:00      0.000     0.017    0.0266
   11/07/2014 06:30:00      0.000     0.017    0.0264
   11/07/2014 06:45:00      0.000     0.017    0.0262
   11/07/2014 07:00:00      0.000     0.017    0.0260
   11/07/2014 07:15:00      0.000     0.017    0.0257
   11/07/2014 07:30:00      0.000     0.017    0.0255
   11/07/2014 07:45:00      0.000     0.017    0.0253
   11/07/2014 08:00:00      0.000     0.017    0.0251
   11/07/2014 08:15:00      0.000     0.017    0.0249
   11/07/2014 08:30:00      0.000     0.017    0.0247
   11/07/2014 08:45:00      0.000     0.017    0.0245
   11/07/2014 09:00:00      0.000     0.017    0.0243
   11/07/2014 09:15:00      0.000     0.017    0.0241
   11/07/2014 09:30:00      0.000     0.017    0.0239
   11/07/2014 09:45:00      0.000     0.017    0.0237
   11/07/2014 10:00:00      0.000     0.017    0.0235
   11/07/2014 10:15:00      0.000     0.017    0.0233
   11/07/2014 10:30:00      0.000     0.017    0.0231
   11/07/2014 10:45:00      0.000     0.017    0.0229
   11/07/2014 11:00:00      0.000     0.017    0.0227
   11/07/2014 11:15:00      0.000     0.017    0.0225
   11/07/2014 11:30:00      0.000     0.017    0.0223
   11/07/2014 11:45:00      0.000     0.017    0.0221
   11/07/2014 12:00:00      0.000     0.017    0.0219
  
  
  ************
  Node Results
  ************
  
  <<< Node 3 >>>
  ----------------------------------------------------------------
                           Inflow  Flooding     Depth      Head
  Date        Time            CFS       CFS      feet      feet
  ----------------------------------------------------------------
   11/04/2014 00:15:00      0.000     0.000     0.000     0.000
   11/04/2014 00:30:00      0.000     0.000     0.000     0.000
   11/04/2014 00:45:00      0.000     0.000     0.000     0.000
   11/04/2014 01:00:00      0.000     0.000     0.000     0.000
   11/04/2014 01:15:00      0.000     0.000     0.000     0.000
   11/04/2014 01:30:00      0.000     0.000     0.000     0.000
   11/04/2014 01:45:00      0.000     0.000     0.000     0.000
   11/04/2014 02:00:00      0.000     0.000     0.000     0.000
   11/04/2014 02:15:00      0.000     0.000     0.000     0.000
   11/04/2014 02:30:00      0.000     0.000     0.000     0.000
   11/04/2014 02:45:00      0.000     0.000     0.000     0.000
   11/04/2014 03:00:00      0.000     0.000     0.000     0.000
   11/04/2014 03:15:00      0.000     0.000     0.000     0.000
   11/04/2014 03:30:00      0.000     0.000     0.000     0.000
   11/04/2014 03:45:00      0.000     0.000     0.000     0.000
   11/04/2014 04:00:00      0.000     0.000     0.000     0.000
   11/04/2014 04:15:00      0.000     0.000     0.000     0.000
   11/04/2014 04:30:00      0.000     0.000     0.000     0.000
   11/04/2014 04:45:00      0.000     0.000     0.000     0.000
   11/04/2014 05:00:00      0.000     0.000     0.000     0.000
   11/04/2014 05:15:00      0.000     0.000     0.000     0.000
   11/04/2014 05:30:00      0.000     0.000     0.000     0.000
   11/04/2014 05:45:00      0.000     0.000     0.000     0.000
   11/04/2014 06:00:00      0.000     0.000     0.000     0.000
   11/04/2014 06:15:00      0.000     0.000     0.000     0.000
   11/04/2014 06:30:00      0.000     0.000     0.000     0.000
   11/04/2014 06:45:00      0.000     0.000     0.000     0.000
   11/04/2014 07:00:00      0.000     0.000     0.000     0.000
   11/04/2014 07:15:00      0.000     0.000     0.000     0.000
   11/04/2014 07:30:00      0.000     0.000     0.000     0.000
   11/04/2014 07:45:00      0.000     0.000     0.000     0.000
   11/04/2014 08:00:00      0.000     0.000     0.000     0.000
   11/04/2014 08:15:00      0.000     0.000     0.000     0.000
   11/04/2014 08:30:00      0.000     0.000     0.000     0.000
   11/04/2014 08:45:00      0.000     0.000     0.000     0.000
   11/04/2014 09:00:00      0.000     0.000     0.000     0.000
   11/04/2014 09:15:00      0.000     0.000     0.000     0.000
   11/04/2014 09:30:00      0.000     0.000     0.000     0.000
   11/04/2014 09:45:00      0.000     0.000     0.000     0.000
   11/04/2014 10:00:00      0.000     0.000     0.000     0.000
   11/04/2014 10:15:00      0.000     0.000     0.000     0.000
   11/04/2014 10:30:00      0.000     0.000     0.000     0.000
   11/04/2014 10:45:00      0.000     0.000     0.000     0.000
   11/04/2014 11:00:00      0.000     0.000     0.000     0.000
   11/04/2014 11:15:00      0.001     0.000     0.000     0.000
   11/04/2014 11:30:00      0.001     0.000     0.000     0.000
   11/04/2014 11:45:00      0.003     0.000     0.000     0.000
   11/04/2014 12:00:00      0.020     0.000     0.000     0.000
   11/04/2014 12:15:00      0.024     0.000     0.000     0.000
   11/04/2014 12:30:00      0.027     0.000     0.000     0.000
   11/04/2014 12:45:00      0.030     0.000     0.000     0.000
   11/04/2014 13:00:00      0.032     0.000     0.000     0.000
   11/04/2014 13:15:00      0.034     0.000     0.000     0.000
   11/04/2014 13:30:00      0.036     0.000     0.000     0.000
   11/04/2014 13:45:00      0.038     0.000     0.000     0.000
   11/04/2014 14:00:00      0.040     0.000     0.000     0.000
   11/04/2014 14:15:00      0.042     0.000     0.000     0.000
   11/04/2014 14:30:00      0.044     0.000     0.000     0.000
   11/04/2014 14:45:00      0.046     0.000     0.000     0.000
   11/04/2014 15:00:00      0.047     0.000     0.000     0.000
   11/04/2014 15:15:00      0.049     0.000     0.000     0.000
   11/04/2014 15:30:00      0.051     0.000     0.000     0.000
   11/04/2014 15:45:00      0.053     0.000     0.000     0.000
   11/04/2014 16:00:00      0.054     0.000     0.000     0.000
   11/04/2014 16:15:00      0.056     0.000     0.000     0.000
   11/04/2014 16:30:00      0.057     0.000     0.000     0.000
   11/04/2014 16:45:00      0.059     0.000     0.000     0.000
   11/04/2014 17:00:00      0.060     0.000     0.000     0.000
   11/04/2014 17:15:00      0.061     0.000     0.000     0.000
   11/04/2014 17:30:00      0.063     0.000     0.000     0.000
   11/04/2014 17:45:00      0.064     0.000     0.000     0.000
   11/04/2014 18:00:00      0.065     0.000     0.000     0.000
   11/04/2014 18:15:00      0.067     0.000     0.000     0.000
   11/04/2014 18:30:00      0.068     0.000     0.000     0.000
   11/04/2014 18:45:00      0.069     0.000     0.000     0.000
   11/04/2014 19:00:00      0.070     0.000     0.000     0.000
   11/04/2014 19:15:00      0.072     0.000     0.000     0.000
   11/04/2014 19:30:00      0.073     0.000     0.000     0.000
   11/04/2014 19:45:00      0.074     0.000     0.000     0.000
   11/04/2014 20:00:00      0.075     0.000     0.000     0.000
   11/04/2014 20:15:00      0.076     0.000     0.000     0.000
   11/04/2014 20:30:00      0.077     0.000     0.000     0.000
   11/04/2014 20:45:00      0.078     0.000     0.000     0.000
   11/04/2014 21:00:00      0.079     0.000     0.000     0.000
   11/04/2014 21:15:00      0.080     0.000     0.000     0.000
   11/04/2014 21:30:00      0.081     0.000     0.000     0.000
   11/04/2014 21:45:00      0.082     0.000     0.000     0.000
   11/04/2014 22:00:00      0.083     0.000     0.000     0.000
   11/04/2014 22:15:00      0.083     0.000     0.000     0.000
   11/04/2014 22:30:00      0.084     0.000     0.000     0.000
   11/04/2014 22:45:00      0.085     0.000     0.000     0.000
   11/04/2014 23:00:00      0.086     0.000     0.000     0.000
   11/04/2014 23:15:00      0.086     0.000     0.000     0.000
   11/04/2014 23:30:00      0.087     0.000     0.000     0.000
   11/04/2014 23:45:00      0.088     0.000     0.000     0.000
   11/05/2014 00:00:00      0.089     0.000     0.000     0.000
   11/05/2014 00:15:00      0.089     0.000     0.000     0.000
   11/05/2014 00:30:00      0.089     0.000     0.000     0.000
   11/05/2014 00:45:00      0.089     0.000     0.000     0.000
   11/05/2014 01:00:00      0.090     0.000     0.000     0.000
   11/05/2014 01:15:00      0.090     0.000     0.000     0.000
   11/05/2014 01:30:00      0.090     0.000     0.000     0.000
   11/05/2014 01:45:00      0.090     0.000     0.000     0.000
   11/05/2014 02:00:00      0.090     0.000     0.000     0.000
   11/05/2014 02:15:00      0.090     0.000     0.000     0.000
   11/05/2014 02:30:00      0.090     0.000     0.000     0.000
   11/05/2014 02:45:00      0.090     0.000     0.000     0.000
   11/05/2014 03:00:00      0.090     0.000     0.000     0.000
   11/05/2014 03:15:00      0.090     0.000     0.000     0.000
   11/05/2014 03:30:00      0.090     0.000     0.000     0.000
   11/05/2014 03:45:00      0.090     0.000     0.000     0.000
   11/05/2014 04:00:00      0.090     0.000     0.000     0.000
   11/05/2014 04:15:00      0.090     0.000     0.000     0.000
   11/05/2014 04:30:00      0.090     0.000     0.000     0.000
   11/05/2014 04:45:00      0.090     0.000     0.000     0.000
   11/05/2014 05:00:00      0.090     0.000     0.000     0.000
   11/05/2014 05:15:00      0.090     0.000     0.000     0.000
   11/05/2014 05:30:00      0.089     0.000     0.000     0.000
   11/05/2014 05:45:00      0.089     0.000     0.000     0.000
   11/05/2014 06:00:00      0.089     0.000     0.000     0.000
   11/05/2014 06:15:00      0.089     0.000     0.000     0.000
   11/05/2014 06:30:00      0.089     0.000     0.000     0.000
   11/05/2014 06:45:00      0.089     0.000     0.000     0.000
   11/05/2014 07:00:00      0.088     0.000     0.000     0.000
   11/05/2014 07:15:00      0.088     0.000     0.000     0.000
   11/05/2014 07:30:00      0.088     0.000     0.000     0.000
   11/05/2014 07:45:00      0.088     0.000     0.000     0.000
   11/05/2014 08:00:00      0.087     0.000     0.000     0.000
   11/05/2014 08:15:00      0.087     0.000     0.000     0.000
   11/05/2014 08:30:00      0.087     0.000     0.000     0.000
   11/05/2014 08:45:00      0.087     0.000     0.000     0.000
   11/05/2014 09:00:00      0.086     0.000     0.000     0.000
   11/05/2014 09:15:00      0.086     0.000     0.000     0.000
   11/05/2014 09:30:00      0.086     0.000     0.000     0.000
   11/05/2014 09:45:00      0.086     0.000     0.000     0.000
   11/05/2014 10:00:00      0.085     0.000     0.000     0.000
   11/05/2014 10:15:00      0.085     0.000     0.000     0.000
   11/05/2014 10:30:00      0.085     0.000     0.000     0.000
   11/05/2014 10:45:00      0.084     0.000     0.000     0.000
   11/05/2014 11:00:00      0.084     0.000     0.000     0.000
   11/05/2014 11:15:00      0.084     0.000     0.000     0.000
   11/05/2014 11:30:00      0.083     0.000     0.000     0.000
   11/05/2014 11:45:00      0.083     0.000     0.000     0.000
   11/05/2014 12:00:00      0.083     0.000     0.000     0.000
   11/05/2014 12:15:00      0.082     0.000     0.000     0.000
   11/05/2014 12:30:00      0.082     0.000     0.000     0.000
   11/05/2014 12:45:00      0.082     0.000     0.000     0.000
   11/05/2014 13:00:00      0.081     0.000     0.000     0.000
   11/05/2014 13:15:00      0.081     0.000     0.000     0.000
   11/05/2014 13:30:00      0.080     0.000     0.000     0.000
   11/05/2014 13:45:00      0.080     0.000     0.000     0.000
   11/05/2014 14:00:00      0.080     0.000     0.000     0.000
   11/05/2014 14:15:00      0.079     0.000     0.000     0.000
   11/05/2014 14:30:00      0.079     0.000     0.000     0.000
   11/05/2014 14:45:00      0.079     0.000     0.000     0.000
   11/05/2014 15:00:00      0.078     0.000     0.000     0.000
   11/05/2014 15:15:00      0.078     0.000     0.000     0.000
   11/05/2014 15:30:00      0.077     0.000     0.000     0.000
   11/05/2014 15:45:00      0.077     0.000     0.000     0.000
   11/05/2014 16:00:00      0.077     0.000     0.000     0.000
   11/05/2014 16:15:00      0.076     0.000     0.000     0.000
   11/05/2014 16:30:00      0.076     0.000     0.000     0.000
   11/05/2014 16:45:00      0.075     0.000     0.000     0.000
   11/05/2014 17:00:00      0.075     0.000     0.000     0.000
   11/05/2014 17:15:00      0.075     0.000     0.000     0.000
   11/05/2014 17:30:00      0.074     0.000     0.000     0.000
   11/05/2014 17:45:00      0.074     0.000     0.000     0.000
   11/05/2014 18:00:00      0.074     0.000     0.000     0.000
   11/05/2014 18:15:00      0.073     0.000     0.000     0.000
   11/05/2014 18:30:00      0.073     0.000     0.000     0.000
   11/05/2014 18:45:00      0.072     0.000     0.000     0.000
   11/05/2014 19:00:00      0.072     0.000     0.000     0.000
   11/05/2014 19:15:00      0.072     0.000     0.000     0.000
   11/05/2014 19:30:00      0.071     0.000     0.000     0.000
   11/05/2014 19:45:00      0.071     0.000     0.000     0.000
   11/05/2014 20:00:00      0.070     0.000     0.000     0.000
   11/05/2014 20:15:00      0.070     0.000     0.000     0.000
   11/05/2014 20:30:00      0.070     0.000     0.000     0.000
   11/05/2014 20:45:00      0.069     0.000     0.000     0.000
   11/05/2014 21:00:00      0.069     0.000     0.000     0.000
   11/05/2014 21:15:00      0.068     0.000     0.000     0.000
   11/05/2014 21:30:00      0.068     0.000     0.000     0.000
   11/05/2014 21:45:00      0.067     0.000     0.000     0.000
   11/05/2014 22:00:00      0.067     0.000     0.000     0.000
   11/05/2014 22:15:00      0.067     0.000     0.000     0.000
   11/05/2014 22:30:00      0.066     0.000     0.000     0.000
   11/05/2014 22:45:00      0.066     0.000     0.000     0.000
   11/05/2014 23:00:00      0.066     0.000     0.000     0.000
   11/05/2014 23:15:00      0.065     0.000     0.000     0.000
   11/05/2014 23:30:00      0.065     0.000     0.000     0.000
   11/05/2014 23:45:00      0.064     0.000     0.000     0.000
   11/06/2014 00:00:00      0.064     0.000     0.000     0.000
   11/06/2014 00:15:00      0.064     0.000     0.000     0.000
   11/06/2014 00:30:00      0.063     0.000     0.000     0.000
   11/06/2014 00:45:00      0.063     0.000     0.000     0.000
   11/06/2014 01:00:00      0.062     0.000     0.000     0.000
   11/06/2014 01:15:00      0.062     0.000     0.000     0.000
   11/06/2014 01:30:00      0.062     0.000     0.000     0.000
   11/06/2014 01:45:00      0.061     0.000     0.000     0.000
   11/06/2014 02:00:00      0.061     0.000     0.000     0.000
   11/06/2014 02:15:00      0.060     0.000     0.000     0.000
   11/06/2014 02:30:00      0.060     0.000     0.000     0.000
   11/06/2014 02:45:00      0.060     0.000     0.000     0.000
   11/06/2014 03:00:00      0.059     0.000     0.000     0.000
   11/06/2014 03:15:00      0.059     0.000     0.000     0.000
   11/06/2014 03:30:00      0.059     0.000     0.000     0.000
   11/06/2014 03:45:00      0.058     0.000     0.000     0.000
   11/06/2014 04:00:00      0.058     0.000     0.000     0.000
   11/06/2014 04:15:00      0.057     0.000     0.000     0.000
   11/06/2014 04:30:00      0.057     0.000     0.000     0.000
   11/06/2014 04:45:00      0.057     0.000     0.000     0.000
   11/06/2014 05:00:00      0.056     0.000     0.000     0.000
   11/06/2014 05:15:00      0.056     0.000     0.000     0.000
   11/06/2014 05:30:00      0.056     0.000     0.000     0.000
   11/06/2014 05:45:00      0.055     0.000     0.000     0.000
   11/06/2014 06:00:00      0.055     0.000     0.000     0.000
   11/06/2014 06:15:00      0.054     0.000     0.000     0.000
   11/06/2014 06:30:00      0.054     0.000     0.000     0.000
   11/06/2014 06:45:00      0.054     0.000     0.000     0.000
   11/06/2014 07:00:00      0.053     0.000     0.000     0.000
   11/06/2014 07:15:00      0.053     0.000     0.000     0.000
   11/06/2014 07:30:00      0.053     0.000     0.000     0.000
   11/06/2014 07:45:00      0.052     0.000     0.000     0.000
   11/06/2014 08:00:00      0.052     0.000     0.000     0.000
   11/06/2014 08:15:00      0.052     0.000     0.000     0.000
   11/06/2014 08:30:00      0.051     0.000     0.000     0.000
   11/06/2014 08:45:00      0.051     0.000     0.000     0.000
   11/06/2014 09:00:00      0.051     0.000     0.000     0.000
   11/06/2014 09:15:00      0.050     0.000     0.000     0.000
   11/06/2014 09:30:00      0.050     0.000     0.000     0.000
   11/06/2014 09:45:00      0.049     0.000     0.000     0.000
   11/06/2014 10:00:00      0.049     0.000     0.000     0.000
   11/06/2014 10:15:00      0.049     0.000     0.000     0.000
   11/06/2014 10:30:00      0.048     0.000     0.000     0.000
   11/06/2014 10:45:00      0.048     0.000     0.000     0.000
   11/06/2014 11:00:00      0.048     0.000     0.000     0.000
   11/06/2014 11:15:00      0.047     0.000     0.000     0.000
   11/06/2014 11:30:00      0.047     0.000     0.000     0.000
   11/06/2014 11:45:00      0.047     0.000     0.000     0.000
   11/06/2014 12:00:00      0.046     0.000     0.000     0.000
   11/06/2014 12:15:00      0.046     0.000     0.000     0.000
   11/06/2014 12:30:00      0.046     0.000     0.000     0.000
   11/06/2014 12:45:00      0.045     0.000     0.000     0.000
   11/06/2014 13:00:00      0.045     0.000     0.000     0.000
   11/06/2014 13:15:00      0.045     0.000     0.000     0.000
   11/06/2014 13:30:00      0.045     0.000     0.000     0.000
   11/06/2014 13:45:00      0.044     0.000     0.000     0.000
   11/06/2014 14:00:00      0.044     0.000     0.000     0.000
   11/06/2014 14:15:00      0.044     0.000     0.000     0.000
   11/06/2014 14:30:00      0.043     0.000     0.000     0.000
   11/06/2014 14:45:00      0.043     0.000     0.000     0.000
   11/06/2014 15:00:00      0.043     0.000     0.000     0.000
   11/06/2014 15:15:00      0.042     0.000     0.000     0.000
   11/06/2014 15:30:00      0.042     0.000     0.000     0.000
   11/06/2014 15:45:00      0.042     0.000     0.000     0.000
   11/06/2014 16:00:00      0.041     0.000     0.000     0.000
   11/06/2014 16:15:00      0.041     0.000     0.000     0.000
   11/06/2014 16:30:00      0.041     0.000     0.000     0.000
   11/06/2014 16:45:00      0.041     0.000     0.000     0.000
   11/06/2014 17:00:00      0.040     0.000     0.000     0.000
   11/06/2014 17:15:00      0.040     0.000     0.000     0.000
   11/06/2014 17:30:00      0.040     0.000     0.000     0.000
   11/06/2014 17:45:00      0.039     0.000     0.000     0.000
   11/06/2014 18:00:00      0.039     0.000     0.000     0.000
   11/06/2014 18:15:00      0.039     0.000     0.000     0.000
   11/06/2014 18:30:00      0.038     0.000     0.000     0.000
   11/06/2014 18:45:00      0.038     0.000     0.000     0.000
   11/06/2014 19:00:00      0.038     0.000     0.000     0.000
   11/06/2014 19:15:00      0.038     0.000     0.000     0.000
   11/06/2014 19:30:00      0.037     0.000     0.000     0.000
   11/06/2014 19:45:00      0.037     0.000     0.000     0.000
   11/06/2014 20:00:00      0.037     0.000     0.000     0.000
   11/06/2014 20:15:00      0.036     0.000     0.000     0.000
   11/06/2014 20:30:00      0.036     0.000     0.000     0.000
   11/06/2014 20:45:00      0.036     0.000     0.000     0.000
   11/06/2014 21:00:00      0.036     0.000     0.000     0.000
   11/06/2014 21:15:00      0.035     0.000     0.000     0.000
   11/06/2014 21:30:00      0.035     0.000     0.000     0.000
   11/06/2014 21:45:00      0.035     0.000     0.000     0.000
   11/06/2014 22:00:00      0.035     0.000     0.000     0.000
   11/06/2014 22:15:00      0.034     0.000     0.000     0.000
   11/06/2014 22:30:00      0.034     0.000     0.000     0.000
   11/06/2014 22:45:00      0.034     0.000     0.000     0.000
   11/06/2014 23:00:00      0.034     0.000     0.000     0.000
   11/06/2014 23:15:00      0.033     0.000     0.000     0.000
   11/06/2014 23:30:00      0.033     0.000     0.000     0.000
   11/06/2014 23:45:00      0.033     0.000     0.000     0.000
   11/07/2014 00:00:00      0.033     0.000     0.000     0.000
   11/07/2014 00:15:00      0.032     0.000     0.000     0.000
   11/07/2014 00:30:00      0.032     0.000     0.000     0.000
   11/07/2014 00:45:00      0.032     0.000     0.000     0.000
   11/07/2014 01:00:00      0.032     0.000     0.000     0.000
   11/07/2014 01:15:00      0.031     0.000     0.000     0.000
   11/07/2014 01:30:00      0.031     0.000     0.000     0.000
   11/07/2014 01:45:00      0.031     0.000     0.000     0.000
   11/07/2014 02:00:00      0.031     0.000     0.000     0.000
   11/07/2014 02:15:00      0.030     0.000     0.000     0.000
   11/07/2014 02:30:00      0.030     0.000     0.000     0.000
   11/07/2014 02:45:00      0.030     0.000     0.000     0.000
   11/07/2014 03:00:00      0.030     0.000     0.000     0.000
   11/07/2014 03:15:00      0.029     0.000     0.000     0.000
   11/07/2014 03:30:00      0.029     0.000     0.000     0.000
   11/07/2014 03:45:00      0.029     0.000     0.000     0.000
   11/07/2014 04:00:00      0.029     0.000     0.000     0.000
   11/07/2014 04:15:00      0.028     0.000     0.000     0.000
   11/07/2014 04:30:00      0.028     0.000     0.000     0.000
   11/07/2014 04:45:00      0.028     0.000     0.000     0.000
   11/07/2014 05:00:00      0.028     0.000     0.000     0.000
   11/07/2014 05:15:00      0.027     0.000     0.000     0.000
   11/07/2014 05:30:00      0.027     0.000     0.000     0.000
   11/07/2014 05:45:00      0.027     0.000     0.000     0.000
   11/07/2014 06:00:00      0.027     0.000     0.000     0.000
   11/07/2014 06:15:00      0.027     0.000     0.000     0.000
   11/07/2014 06:30:00      0.026     0.000     0.000     0.000
   11/07/2014 06:45:00      0.026     0.000     0.000     0.000
   11/07/2014 07:00:00      0.026     0.000     0.000     0.000
   11/07/2014 07:15:00      0.026     0.000     0.000     0.000
   11/07/2014 07:30:00      0.026     0.000     0.000     0.000
   11/07/2014 07:45:00      0.025     0.000     0.000     0.000
   11/07/2014 08:00:00      0.025     0.000     0.000     0.000
   11/07/2014 08:15:00      0.025     0.000     0.000     0.000
   11/07/2014 08:30:00      0.025     0.000     0.000     0.000
   11/07/2014 08:45:00      0.024     0.000     0.000     0.000
   11/07/2014 09:00:00      0.024     0.000     0.000     0.000
   11/07/2014 09:15:00      0.024     0.000     0.000     0.000
   11/07/2014 09:30:00      0.024     0.000     0.000     0.000
   11/07/2014 09:45:00      0.024     0.000     0.000     0.000
   11/07/2014 10:00:00      0.023     0.000     0.000     0.000
   11/07/2014 10:15:00      0.023     0.000     0.000     0.000
   11/07/2014 10:30:00      0.023     0.000     0.000     0.000
   11/07/2014 10:45:00      0.023     0.000     0.000     0.000
   11/07/2014 11:00:00      0.023     0.000     0.000     0.000
   11/07/2014 11:15:00      0.022     0.000     0.000     0.000
   11/07/2014 11:30:00      0.022     0.000     0.000     0.000
   11/07/2014 11:45:00      0.022     0.000     0.000     0.000
   11/07/2014 12:00:00      0.022     0.000     0.000     0.000
  
  
  **************************        Volume         Depth
  Runoff Quantity Continuity     acre-feet        inches
  **************************     ---------       -------
  Total Precipitation ......         1.167         2.000
  Evaporation Loss .........         0.000         0.000
  Infiltration Loss ........         0.507         0.870
  Surface Runoff ...........         0.342         0.587
  Final Storage ............         0.317         0.544
  Continuity Error (%) .....        -0.005
  
  
  **************************        Volume        Volume
  Flow Routing Continuity        acre-feet      10^6 gal
  **************************     ---------     ---------
  Dry Weather Inflow .......         0.000         0.000
  Wet Weather Inflow .......         0.342         0.112
  Groundwater Inflow .......         0.000         0.000
  RDII Inflow ..............         0.000         0.000
  External Inflow ..........         0.000         0.000
  External Outflow .........         0.342         0.112
  Flooding Loss ............         0.000         0.000
  Evaporation Loss .........         0.000         0.000
  Exfiltration Loss ........         0.000         0.000
  Initial Stored Volume ....         0.000         0.000
  Final Stored Volume ......         0.000         0.000
  Continuity Error (%) .....         0.000
  
  
  ***************************
  Subcatchment Runoff Summary
  ***************************
  
  ------------------------------------------------------------------------------------------------------------------------------
                            Total      Total      Total      Total     Imperv       Perv      Total       Total     Peak  Runoff
                           Precip      Runon       Evap      Infil     Runoff     Runoff     Runoff      Runoff   Runoff   Coeff
  Subcatchment                 in         in         in         in         in         in         in    10^6 gal      CFS
  ------------------------------------------------------------------------------------------------------------------------------
  S1                         2.00       0.00       0.00       0.00       1.80       0.00       1.80        0.20     0.40   0.901
  S2                         2.00       2.40       0.00       2.03       0.00       1.37       1.37        0.11     0.09   0.311
  

  Analysis begun on:  Fri Oct 11 19:42:38 2019
  Analysis ended on:  Fri Oct 11 19:42:38 2019
  Total elapsed time: < 1 sec