
  EPA STORM WATER MANAGEMENT MODEL - VERSION 5.1 (Build 5.3.0.dev0)
  --------------------------------------------------------------

  
  *************
  Element Count
  *************
  Number of rain gages ...... 1
  Number of subcatchments ... 2
  Number of nodes ........... 1
  Number of links ........... 0
  Number of pollutants ...... 0
  Number of land uses ....... 0
  
  
  ****************
  Raingage Summary
  ****************
                                                      Data       Recording
  Name                 Data Source                    Type       Interval 
  ------------------------------------------------------------------------
  1                    3inch                          INTENSITY   15 min.
  
  
  ********************
  Subcatchment Summary
  ********************
  Name                       Area     Width   %Imperv    %Slope Rain Gage            Outlet              
  -----------------------------------------------------------------------------------------------------------
  S1                         3.00      1.00    100.00    1.0000 1                    S2                  
  S2                         3.00      1.00      0.00    1.0000 1                    3                   
  
  
  ************
  Node Summary
  ************
                                           Invert      Max.    Ponded    External
  Name                 Type                 Elev.     Depth      Area    Inflow  
  -------------------------------------------------------------------------------
  3                    OUTFALL               0.00      0.00       0.0
  
  
  
  *********************************************************
  NOTE: The summary statistics displayed in this report are
  based on results found at every computational time step,  
  not just on results from each reporting time step.
  *********************************************************
  
  ****************
  Analysis Options
  ****************
  Flow Units ............... CFS
  Process Models:
    Rainfall/Runoff ........ YES
    RDII ................... NO
    Snowmelt ............... NO
    Groundwater ............ NO
    Flow Routing ........... NO
    Water Quality .......... NO
  Infiltration Method ...... GREEN_AMPT
  Starting Date ............ 11/04/2014 00:00:00
  Ending Date .............. 11/07/2014 12:00:00
  Antecedent Dry Days ...... 0.0
  Report Time Step ......... 00:15:00
  Wet Time Step ............ 00:05:00
  Dry Time Step ............ 01:00:00
  
  
  ********************
  Subcatchment Results
  ********************
  
  <<< Subcatchment S1 >>>
  ---------------------------------------------------
  Date        Time        Precip.    Losses    Runoff
                            in/hr     in/hr       CFS
  ---------------------------------------------------
   11/04/2014 00:15:00      0.033     0.000    0.0000
   11/04/2014 00:30:00      0.033     0.000    0.0000
   11/04/2014 00:45:00      0.033     0.000    0.0000
   11/04/2014 01:00:00      0.033     0.000    0.0000
   11/04/2014 01:15:00      0.033     0.000    0.0000
   11/04/2014 01:30:00      0.033     0.000    0.0000
   11/04/2014 01:45:00      0.033     0.000    0.0000
   11/04/2014 02:00:00      0.039     0.000    0.0000
   11/04/2014 02:15:00      0.039     0.000    0.0000
   11/04/2014 02:30:00      0.039     0.000    0.0000
   11/04/2014 02:45:00      0.039     0.000    0.0000
   11/04/2014 03:00:00      0.039     0.000    0.0000
   11/04/2014 03:15:00      0.039     0.000    0.0000
   11/04/2014 03:30:00      0.039     0.000    0.0041
   11/04/2014 03:45:00      0.039     0.000    0.0048
   11/04/2014 04:00:00      0.048     0.000    0.0056
   11/04/2014 04:15:00      0.048     0.000    0.0067
   11/04/2014 04:30:00      0.048     0.000    0.0078
   11/04/2014 04:45:00      0.048     0.000    0.0090
   11/04/2014 05:00:00      0.048     0.000    0.0102
   11/04/2014 05:15:00      0.048     0.000    0.0115
   11/04/2014 05:30:00      0.048     0.000    0.0129
   11/04/2014 05:45:00      0.048     0.000    0.0143
   11/04/2014 06:00:00      0.054     0.000    0.0157
   11/04/2014 06:15:00      0.054     0.000    0.0174
   11/04/2014 06:30:00      0.054     0.000    0.0192
   11/04/2014 06:45:00      0.054     0.000    0.0210
   11/04/2014 07:00:00      0.066     0.000    0.0228
   11/04/2014 07:15:00      0.066     0.000    0.0252
   11/04/2014 07:30:00      0.066     0.000    0.0276
   11/04/2014 07:45:00      0.066     0.000    0.0301
   11/04/2014 08:00:00      0.078     0.000    0.0327
   11/04/2014 08:15:00      0.078     0.000    0.0358
   11/04/2014 08:30:00      0.084     0.000    0.0390
   11/04/2014 08:45:00      0.084     0.000    0.0427
   11/04/2014 09:00:00      0.096     0.000    0.0463
   11/04/2014 09:15:00      0.096     0.000    0.0507
   11/04/2014 09:30:00      0.108     0.000    0.0552
   11/04/2014 09:45:00      0.108     0.000    0.0605
   11/04/2014 10:00:00      0.138     0.000    0.0658
   11/04/2014 10:15:00      0.138     0.000    0.0731
   11/04/2014 10:30:00      0.186     0.000    0.0806
   11/04/2014 10:45:00      0.186     0.000    0.0914
   11/04/2014 11:00:00      0.288     0.000    0.1026
   11/04/2014 11:15:00      0.288     0.000    0.1216
   11/04/2014 11:30:00      0.888     0.000    0.1416
   11/04/2014 11:45:00      3.672     0.000    0.2157
   11/04/2014 12:00:00      0.432     0.000    0.6528
   11/04/2014 12:15:00      0.432     0.000    0.6926
   11/04/2014 12:30:00      0.222     0.000    0.7317
   11/04/2014 12:45:00      0.222     0.000    0.7379
   11/04/2014 13:00:00      0.162     0.000    0.7439
   11/04/2014 13:15:00      0.162     0.000    0.7404
   11/04/2014 13:30:00      0.126     0.000    0.7371
   11/04/2014 13:45:00      0.126     0.000    0.7285
   11/04/2014 14:00:00      0.090     0.000    0.7202
   11/04/2014 14:15:00      0.090     0.000    0.7069
   11/04/2014 14:30:00      0.090     0.000    0.6942
   11/04/2014 14:45:00      0.090     0.000    0.6820
   11/04/2014 15:00:00      0.090     0.000    0.6703
   11/04/2014 15:15:00      0.090     0.000    0.6592
   11/04/2014 15:30:00      0.090     0.000    0.6485
   11/04/2014 15:45:00      0.090     0.000    0.6382
   11/04/2014 16:00:00      0.054     0.000    0.6284
   11/04/2014 16:15:00      0.054     0.000    0.6139
   11/04/2014 16:30:00      0.054     0.000    0.6001
   11/04/2014 16:45:00      0.054     0.000    0.5868
   11/04/2014 17:00:00      0.054     0.000    0.5741
   11/04/2014 17:15:00      0.054     0.000    0.5619
   11/04/2014 17:30:00      0.054     0.000    0.5503
   11/04/2014 17:45:00      0.054     0.000    0.5391
   11/04/2014 18:00:00      0.054     0.000    0.5284
   11/04/2014 18:15:00      0.054     0.000    0.5182
   11/04/2014 18:30:00      0.054     0.000    0.5083
   11/04/2014 18:45:00      0.054     0.000    0.4989
   11/04/2014 19:00:00      0.054     0.000    0.4898
   11/04/2014 19:15:00      0.054     0.000    0.4811
   11/04/2014 19:30:00      0.054     0.000    0.4727
   11/04/2014 19:45:00      0.054     0.000    0.4646
   11/04/2014 20:00:00      0.036     0.000    0.4568
   11/04/2014 20:15:00      0.036     0.000    0.4471
   11/04/2014 20:30:00      0.036     0.000    0.4378
   11/04/2014 20:45:00      0.036     0.000    0.4288
   11/04/2014 21:00:00      0.036     0.000    0.4202
   11/04/2014 21:15:00      0.036     0.000    0.4119
   11/04/2014 21:30:00      0.036     0.000    0.4039
   11/04/2014 21:45:00      0.036     0.000    0.3962
   11/04/2014 22:00:00      0.036     0.000    0.3888
   11/04/2014 22:15:00      0.036     0.000    0.3817
   11/04/2014 22:30:00      0.036     0.000    0.3748
   11/04/2014 22:45:00      0.036     0.000    0.3682
   11/04/2014 23:00:00      0.036     0.000    0.3618
   11/04/2014 23:15:00      0.036     0.000    0.3556
   11/04/2014 23:30:00      0.036     0.000    0.3497
   11/04/2014 23:45:00      0.036     0.000    0.3439
   11/05/2014 00:00:00      0.000     0.000    0.3384
   11/05/2014 00:15:00      0.000     0.000    0.3290
   11/05/2014 00:30:00      0.000     0.000    0.3200
   11/05/2014 00:45:00      0.000     0.000    0.3113
   11/05/2014 01:00:00      0.000     0.000    0.3030
   11/05/2014 01:15:00      0.000     0.000    0.2950
   11/05/2014 01:30:00      0.000     0.000    0.2872
   11/05/2014 01:45:00      0.000     0.000    0.2798
   11/05/2014 02:00:00      0.000     0.000    0.2726
   11/05/2014 02:15:00      0.000     0.000    0.2657
   11/05/2014 02:30:00      0.000     0.000    0.2590
   11/05/2014 02:45:00      0.000     0.000    0.2525
   11/05/2014 03:00:00      0.000     0.000    0.2463
   11/05/2014 03:15:00      0.000     0.000    0.2403
   11/05/2014 03:30:00      0.000     0.000    0.2345
   11/05/2014 03:45:00      0.000     0.000    0.2288
   11/05/2014 04:00:00      0.000     0.000    0.2234
   11/05/2014 04:15:00      0.000     0.000    0.2182
   11/05/2014 04:30:00      0.000     0.000    0.2131
   11/05/2014 04:45:00      0.000     0.000    0.2082
   11/05/2014 05:00:00      0.000     0.000    0.2034
   11/05/2014 05:15:00      0.000     0.000    0.1988
   11/05/2014 05:30:00      0.000     0.000    0.1943
   11/05/2014 05:45:00      0.000     0.000    0.1900
   11/05/2014 06:00:00      0.000     0.000    0.1858
   11/05/2014 06:15:00      0.000     0.000    0.1817
   11/05/2014 06:30:00      0.000     0.000    0.1778
   11/05/2014 06:45:00      0.000     0.000    0.1740
   11/05/2014 07:00:00      0.000     0.000    0.1703
   11/05/2014 07:15:00      0.000     0.000    0.1667
   11/05/2014 07:30:00      0.000     0.000    0.1632
   11/05/2014 07:45:00      0.000     0.000    0.1598
   11/05/2014 08:00:00      0.000     0.000    0.1565
   11/05/2014 08:15:00      0.000     0.000    0.1533
   11/05/2014 08:30:00      0.000     0.000    0.1502
   11/05/2014 08:45:00      0.000     0.000    0.1472
   11/05/2014 09:00:00      0.000     0.000    0.1442
   11/05/2014 09:15:00      0.000     0.000    0.1414
   11/05/2014 09:30:00      0.000     0.000    0.1386
   11/05/2014 09:45:00      0.000     0.000    0.1359
   11/05/2014 10:00:00      0.000     0.000    0.1333
   11/05/2014 10:15:00      0.000     0.000    0.1307
   11/05/2014 10:30:00      0.000     0.000    0.1282
   11/05/2014 10:45:00      0.000     0.000    0.1258
   11/05/2014 11:00:00      0.000     0.000    0.1235
   11/05/2014 11:15:00      0.000     0.000    0.1212
   11/05/2014 11:30:00      0.000     0.000    0.1189
   11/05/2014 11:45:00      0.000     0.000    0.1167
   11/05/2014 12:00:00      0.000     0.000    0.1146
   11/05/2014 12:15:00      0.000     0.000    0.1125
   11/05/2014 12:30:00      0.000     0.000    0.1105
   11/05/2014 12:45:00      0.000     0.000    0.1086
   11/05/2014 13:00:00      0.000     0.000    0.1066
   11/05/2014 13:15:00      0.000     0.000    0.1048
   11/05/2014 13:30:00      0.000     0.000    0.1029
   11/05/2014 13:45:00      0.000     0.000    0.1012
   11/05/2014 14:00:00      0.000     0.000    0.0994
   11/05/2014 14:15:00      0.000     0.000    0.0977
   11/05/2014 14:30:00      0.000     0.000    0.0961
   11/05/2014 14:45:00      0.000     0.000    0.0944
   11/05/2014 15:00:00      0.000     0.000    0.0929
   11/05/2014 15:15:00      0.000     0.000    0.0913
   11/05/2014 15:30:00      0.000     0.000    0.0898
   11/05/2014 15:45:00      0.000     0.000    0.0883
   11/05/2014 16:00:00      0.000     0.000    0.0869
   11/05/2014 16:15:00      0.000     0.000    0.0855
   11/05/2014 16:30:00      0.000     0.000    0.0841
   11/05/2014 16:45:00      0.000     0.000    0.0828
   11/05/2014 17:00:00      0.000     0.000    0.0814
   11/05/2014 17:15:00      0.000     0.000    0.0802
   11/05/2014 17:30:00      0.000     0.000    0.0789
   11/05/2014 17:45:00      0.000     0.000    0.0777
   11/05/2014 18:00:00      0.000     0.000    0.0765
   11/05/2014 18:15:00      0.000     0.000    0.0753
   11/05/2014 18:30:00      0.000     0.000    0.0741
   11/05/2014 18:45:00      0.000     0.000    0.0730
   11/05/2014 19:00:00      0.000     0.000    0.0719
   11/05/2014 19:15:00      0.000     0.000    0.0708
   11/05/2014 19:30:00      0.000     0.000    0.0698
   11/05/2014 19:45:00      0.000     0.000    0.0687
   11/05/2014 20:00:00      0.000     0.000    0.0677
   11/05/2014 20:15:00      0.000     0.000    0.0667
   11/05/2014 20:30:00      0.000     0.000    0.0658
   11/05/2014 20:45:00      0.000     0.000    0.0648
   11/05/2014 21:00:00      0.000     0.000    0.0639
   11/05/2014 21:15:00      0.000     0.000    0.0629
   11/05/2014 21:30:00      0.000     0.000    0.0621
   11/05/2014 21:45:00      0.000     0.000    0.0612
   11/05/2014 22:00:00      0.000     0.000    0.0603
   11/05/2014 22:15:00      0.000     0.000    0.0595
   11/05/2014 22:30:00      0.000     0.000    0.0586
   11/05/2014 22:45:00      0.000     0.000    0.0578
   11/05/2014 23:00:00      0.000     0.000    0.0570
   11/05/2014 23:15:00      0.000     0.000    0.0562
   11/05/2014 23:30:00      0.000     0.000    0.0555
   11/05/2014 23:45:00      0.000     0.000    0.0547
   11/06/2014 00:00:00      0.000     0.000    0.0540
   11/06/2014 00:15:00      0.000     0.000    0.0533
   11/06/2014 00:30:00      0.000     0.000    0.0525
   11/06/2014 00:45:00      0.000     0.000    0.0519
   11/06/2014 01:00:00      0.000     0.000    0.0512
   11/06/2014 01:15:00      0.000     0.000    0.0505
   11/06/2014 01:30:00      0.000     0.000    0.0498
   11/06/2014 01:45:00      0.000     0.000    0.0492
   11/06/2014 02:00:00      0.000     0.000    0.0486
   11/06/2014 02:15:00      0.000     0.000    0.0479
   11/06/2014 02:30:00      0.000     0.000    0.0473
   11/06/2014 02:45:00      0.000     0.000    0.0467
   11/06/2014 03:00:00      0.000     0.000    0.0461
   11/06/2014 03:15:00      0.000     0.000    0.0455
   11/06/2014 03:30:00      0.000     0.000    0.0450
   11/06/2014 03:45:00      0.000     0.000    0.0444
   11/06/2014 04:00:00      0.000     0.000    0.0439
   11/06/2014 04:15:00      0.000     0.000    0.0433
   11/06/2014 04:30:00      0.000     0.000    0.0428
   11/06/2014 04:45:00      0.000     0.000    0.0423
   11/06/2014 05:00:00      0.000     0.000    0.0417
   11/06/2014 05:15:00      0.000     0.000    0.0412
   11/06/2014 05:30:00      0.000     0.000    0.0407
   11/06/2014 05:45:00      0.000     0.000    0.0403
   11/06/2014 06:00:00      0.000     0.000    0.0398
   11/06/2014 06:15:00      0.000     0.000    0.0393
   11/06/2014 06:30:00      0.000     0.000    0.0388
   11/06/2014 06:45:00      0.000     0.000    0.0384
   11/06/2014 07:00:00      0.000     0.000    0.0379
   11/06/2014 07:15:00      0.000     0.000    0.0375
   11/06/2014 07:30:00      0.000     0.000    0.0370
   11/06/2014 07:45:00      0.000     0.000    0.0366
   11/06/2014 08:00:00      0.000     0.000    0.0362
   11/06/2014 08:15:00      0.000     0.000    0.0358
   11/06/2014 08:30:00      0.000     0.000    0.0354
   11/06/2014 08:45:00      0.000     0.000    0.0350
   11/06/2014 09:00:00      0.000     0.000    0.0346
   11/06/2014 09:15:00      0.000     0.000    0.0342
   11/06/2014 09:30:00      0.000     0.000    0.0338
   11/06/2014 09:45:00      0.000     0.000    0.0334
   11/06/2014 10:00:00      0.000     0.000    0.0331
   11/06/2014 10:15:00      0.000     0.000    0.0327
   11/06/2014 10:30:00      0.000     0.000    0.0323
   11/06/2014 10:45:00      0.000     0.000    0.0320
   11/06/2014 11:00:00      0.000     0.000    0.0316
   11/06/2014 11:15:00      0.000     0.000    0.0313
   11/06/2014 11:30:00      0.000     0.000    0.0310
   11/06/2014 11:45:00      0.000     0.000    0.0306
   11/06/2014 12:00:00      0.000     0.000    0.0303
   11/06/2014 12:15:00      0.000     0.000    0.0300
   11/06/2014 12:30:00      0.000     0.000    0.0296
   11/06/2014 12:45:00      0.000     0.000    0.0293
   11/06/2014 13:00:00      0.000     0.000    0.0290
   11/06/2014 13:15:00      0.000     0.000    0.0287
   11/06/2014 13:30:00      0.000     0.000    0.0284
   11/06/2014 13:45:00      0.000     0.000    0.0281
   11/06/2014 14:00:00      0.000     0.000    0.0278
   11/06/2014 14:15:00      0.000     0.000    0.0275
   11/06/2014 14:30:00      0.000     0.000    0.0273
   11/06/2014 14:45:00      0.000     0.000    0.0270
   11/06/2014 15:00:00      0.000     0.000    0.0267
   11/06/2014 15:15:00      0.000     0.000    0.0264
   11/06/2014 15:30:00      0.000     0.000    0.0262
   11/06/2014 15:45:00      0.000     0.000    0.0259
   11/06/2014 16:00:00      0.000     0.000    0.0256
   11/06/2014 16:15:00      0.000     0.000    0.0254
   11/06/2014 16:30:00      0.000     0.000    0.0251
   11/06/2014 16:45:00      0.000     0.000    0.0249
   11/06/2014 17:00:00      0.000     0.000    0.0246
   11/06/2014 17:15:00      0.000     0.000    0.0244
   11/06/2014 17:30:00      0.000     0.000    0.0242
   11/06/2014 17:45:00      0.000     0.000    0.0239
   11/06/2014 18:00:00      0.000     0.000    0.0237
   11/06/2014 18:15:00      0.000     0.000    0.0235
   11/06/2014 18:30:00      0.000     0.000    0.0232
   11/06/2014 18:45:00      0.000     0.000    0.0230
   11/06/2014 19:00:00      0.000     0.000    0.0228
   11/06/2014 19:15:00      0.000     0.000    0.0226
   11/06/2014 19:30:00      0.000     0.000    0.0224
   11/06/2014 19:45:00      0.000     0.000    0.0222
   11/06/2014 20:00:00      0.000     0.000    0.0219
   11/06/2014 20:15:00      0.000     0.000    0.0217
   11/06/2014 20:30:00      0.000     0.000    0.0215
   11/06/2014 20:45:00      0.000     0.000    0.0213
   11/06/2014 21:00:00      0.000     0.000    0.0211
   11/06/2014 21:15:00      0.000     0.000    0.0209
   11/06/2014 21:30:00      0.000     0.000    0.0207
   11/06/2014 21:45:00      0.000     0.000    0.0206
   11/06/2014 22:00:00      0.000     0.000    0.0204
   11/06/2014 22:15:00      0.000     0.000    0.0202
   11/06/2014 22:30:00      0.000     0.000    0.0200
   11/06/2014 22:45:00      0.000     0.000    0.0198
   11/06/2014 23:00:00      0.000     0.000    0.0196
   11/06/2014 23:15:00      0.000     0.000    0.0195
   11/06/2014 23:30:00      0.000     0.000    0.0193
   11/06/2014 23:45:00      0.000     0.000    0.0191
   11/07/2014 00:00:00      0.000     0.000    0.0189
   11/07/2014 00:15:00      0.000     0.000    0.0188
   11/07/2014 00:30:00      0.000     0.000    0.0186
   11/07/2014 00:45:00      0.000     0.000    0.0185
   11/07/2014 01:00:00      0.000     0.000    0.0183
   11/07/2014 01:15:00      0.000     0.000    0.0181
   11/07/2014 01:30:00      0.000     0.000    0.0180
   11/07/2014 01:45:00      0.000     0.000    0.0178
   11/07/2014 02:00:00      0.000     0.000    0.0177
   11/07/2014 02:15:00      0.000     0.000    0.0175
   11/07/2014 02:30:00      0.000     0.000    0.0174
   11/07/2014 02:45:00      0.000     0.000    0.0172
   11/07/2014 03:00:00      0.000     0.000    0.0171
   11/07/2014 03:15:00      0.000     0.000    0.0169
   11/07/2014 03:30:00      0.000     0.000    0.0168
   11/07/2014 03:45:00      0.000     0.000    0.0166
   11/07/2014 04:00:00      0.000     0.000    0.0165
   11/07/2014 04:15:00      0.000     0.000    0.0164
   11/07/2014 04:30:00      0.000     0.000    0.0162
   11/07/2014 04:45:00      0.000     0.000    0.0161
   11/07/2014 05:00:00      0.000     0.000    0.0160
   11/07/2014 05:15:00      0.000     0.000    0.0158
   11/07/2014 05:30:00      0.000     0.000    0.0157
   11/07/2014 05:45:00      0.000     0.000    0.0156
   11/07/2014 06:00:00      0.000     0.000    0.0154
   11/07/2014 06:15:00      0.000     0.000    0.0153
   11/07/2014 06:30:00      0.000     0.000    0.0152
   11/07/2014 06:45:00      0.000     0.000    0.0151
   11/07/2014 07:00:00      0.000     0.000    0.0149
   11/07/2014 07:15:00      0.000     0.000    0.0148
   11/07/2014 07:30:00      0.000     0.000    0.0147
   11/07/2014 07:45:00      0.000     0.000    0.0146
   11/07/2014 08:00:00      0.000     0.000    0.0145
   11/07/2014 08:15:00      0.000     0.000    0.0144
   11/07/2014 08:30:00      0.000     0.000    0.0142
   11/07/2014 08:45:00      0.000     0.000    0.0141
   11/07/2014 09:00:00      0.000     0.000    0.0140
   11/07/2014 09:15:00      0.000     0.000    0.0139
   11/07/2014 09:30:00      0.000     0.000    0.0138
   11/07/2014 09:45:00      0.000     0.000    0.0137
   11/07/2014 10:00:00      0.000     0.000    0.0136
   11/07/2014 10:15:00      0.000     0.000    0.0135
   11/07/2014 10:30:00      0.000     0.000    0.0134
   11/07/2014 10:45:00      0.000     0.000    0.0133
   11/07/2014 11:00:00      0.000     0.000    0.0132
   11/07/2014 11:15:00      0.000     0.000    0.0131
   11/07/2014 11:30:00      0.000     0.000    0.0130
   11/07/2014 11:45:00      0.000     0.000    0.0129
   11/07/2014 12:00:00      0.000     0.000    0.0128
  
  
  <<< Subcatchment S2 >>>
  ---------------------------------------------------
  Date        Time        Precip.    Losses    Runoff
                            in/hr     in/hr       CFS
  ---------------------------------------------------
   11/04/2014 00:15:00      0.033     0.033    0.0000
   11/04/2014 00:30:00      0.033     0.033    0.0000
   11/04/2014 00:45:00      0.033     0.033    0.0000
   11/04/2014 01:00:00      0.033     0.033    0.0000
   11/04/2014 01:15:00      0.033     0.033    0.0000
   11/04/2014 01:30:00      0.033     0.033    0.0000
   11/04/2014 01:45:00      0.033     0.033    0.0000
   11/04/2014 02:00:00      0.039     0.033    0.0000
   11/04/2014 02:15:00      0.039     0.039    0.0000
   11/04/2014 02:30:00      0.039     0.039    0.0000
   11/04/2014 02:45:00      0.039     0.040    0.0000
   11/04/2014 03:00:00      0.039     0.040    0.0000
   11/04/2014 03:15:00      0.039     0.040    0.0000
   11/04/2014 03:30:00      0.039     0.040    0.0000
   11/04/2014 03:45:00      0.039     0.041    0.0000
   11/04/2014 04:00:00      0.048     0.041    0.0000
   11/04/2014 04:15:00      0.048     0.050    0.0000
   11/04/2014 04:30:00      0.048     0.050    0.0000
   11/04/2014 04:45:00      0.048     0.051    0.0000
   11/04/2014 05:00:00      0.048     0.051    0.0000
   11/04/2014 05:15:00      0.048     0.052    0.0000
   11/04/2014 05:30:00      0.048     0.052    0.0000
   11/04/2014 05:45:00      0.048     0.053    0.0000
   11/04/2014 06:00:00      0.054     0.053    0.0000
   11/04/2014 06:15:00      0.054     0.057    0.0000
   11/04/2014 06:30:00      0.054     0.055    0.0000
   11/04/2014 06:45:00      0.054     0.053    0.0000
   11/04/2014 07:00:00      0.066     0.051    0.0000
   11/04/2014 07:15:00      0.066     0.049    0.0000
   11/04/2014 07:30:00      0.066     0.048    0.0000
   11/04/2014 07:45:00      0.066     0.046    0.0000
   11/04/2014 08:00:00      0.078     0.045    0.0000
   11/04/2014 08:15:00      0.078     0.044    0.0000
   11/04/2014 08:30:00      0.084     0.043    0.0000
   11/04/2014 08:45:00      0.084     0.042    0.0000
   11/04/2014 09:00:00      0.096     0.041    0.0000
   11/04/2014 09:15:00      0.096     0.041    0.0000
   11/04/2014 09:30:00      0.108     0.040    0.0000
   11/04/2014 09:45:00      0.108     0.039    0.0000
   11/04/2014 10:00:00      0.138     0.039    0.0000
   11/04/2014 10:15:00      0.138     0.038    0.0000
   11/04/2014 10:30:00      0.186     0.038    0.0000
   11/04/2014 10:45:00      0.186     0.037    0.0000
   11/04/2014 11:00:00      0.288     0.037    0.0000
   11/04/2014 11:15:00      0.288     0.036    0.0038
   11/04/2014 11:30:00      0.888     0.036    0.0053
   11/04/2014 11:45:00      3.672     0.036    0.0111
   11/04/2014 12:00:00      0.432     0.037    0.0503
   11/04/2014 12:15:00      0.432     0.037    0.0585
   11/04/2014 12:30:00      0.222     0.037    0.0673
   11/04/2014 12:45:00      0.222     0.037    0.0735
   11/04/2014 13:00:00      0.162     0.036    0.0799
   11/04/2014 13:15:00      0.162     0.036    0.0855
   11/04/2014 13:30:00      0.126     0.036    0.0912
   11/04/2014 13:45:00      0.126     0.036    0.0964
   11/04/2014 14:00:00      0.090     0.035    0.1016
   11/04/2014 14:15:00      0.090     0.035    0.1062
   11/04/2014 14:30:00      0.090     0.035    0.1107
   11/04/2014 14:45:00      0.090     0.034    0.1153
   11/04/2014 15:00:00      0.090     0.034    0.1198
   11/04/2014 15:15:00      0.090     0.034    0.1243
   11/04/2014 15:30:00      0.090     0.034    0.1287
   11/04/2014 15:45:00      0.090     0.034    0.1332
   11/04/2014 16:00:00      0.054     0.033    0.1376
   11/04/2014 16:15:00      0.054     0.033    0.1412
   11/04/2014 16:30:00      0.054     0.033    0.1447
   11/04/2014 16:45:00      0.054     0.033    0.1482
   11/04/2014 17:00:00      0.054     0.032    0.1516
   11/04/2014 17:15:00      0.054     0.032    0.1549
   11/04/2014 17:30:00      0.054     0.032    0.1582
   11/04/2014 17:45:00      0.054     0.032    0.1614
   11/04/2014 18:00:00      0.054     0.032    0.1645
   11/04/2014 18:15:00      0.054     0.031    0.1675
   11/04/2014 18:30:00      0.054     0.031    0.1705
   11/04/2014 18:45:00      0.054     0.031    0.1734
   11/04/2014 19:00:00      0.054     0.031    0.1762
   11/04/2014 19:15:00      0.054     0.031    0.1790
   11/04/2014 19:30:00      0.054     0.031    0.1817
   11/04/2014 19:45:00      0.054     0.030    0.1843
   11/04/2014 20:00:00      0.036     0.030    0.1869
   11/04/2014 20:15:00      0.036     0.030    0.1890
   11/04/2014 20:30:00      0.036     0.030    0.1911
   11/04/2014 20:45:00      0.036     0.030    0.1931
   11/04/2014 21:00:00      0.036     0.030    0.1950
   11/04/2014 21:15:00      0.036     0.029    0.1968
   11/04/2014 21:30:00      0.036     0.029    0.1986
   11/04/2014 21:45:00      0.036     0.029    0.2003
   11/04/2014 22:00:00      0.036     0.029    0.2019
   11/04/2014 22:15:00      0.036     0.029    0.2035
   11/04/2014 22:30:00      0.036     0.029    0.2050
   11/04/2014 22:45:00      0.036     0.029    0.2065
   11/04/2014 23:00:00      0.036     0.028    0.2079
   11/04/2014 23:15:00      0.036     0.028    0.2092
   11/04/2014 23:30:00      0.036     0.028    0.2105
   11/04/2014 23:45:00      0.036     0.028    0.2118
   11/05/2014 00:00:00      0.000     0.028    0.2130
   11/05/2014 00:15:00      0.000     0.028    0.2133
   11/05/2014 00:30:00      0.000     0.028    0.2135
   11/05/2014 00:45:00      0.000     0.027    0.2137
   11/05/2014 01:00:00      0.000     0.027    0.2138
   11/05/2014 01:15:00      0.000     0.027    0.2138
   11/05/2014 01:30:00      0.000     0.027    0.2138
   11/05/2014 01:45:00      0.000     0.027    0.2137
   11/05/2014 02:00:00      0.000     0.027    0.2136
   11/05/2014 02:15:00      0.000     0.027    0.2134
   11/05/2014 02:30:00      0.000     0.027    0.2131
   11/05/2014 02:45:00      0.000     0.026    0.2129
   11/05/2014 03:00:00      0.000     0.026    0.2125
   11/05/2014 03:15:00      0.000     0.026    0.2121
   11/05/2014 03:30:00      0.000     0.026    0.2117
   11/05/2014 03:45:00      0.000     0.026    0.2113
   11/05/2014 04:00:00      0.000     0.026    0.2108
   11/05/2014 04:15:00      0.000     0.026    0.2103
   11/05/2014 04:30:00      0.000     0.026    0.2097
   11/05/2014 04:45:00      0.000     0.026    0.2091
   11/05/2014 05:00:00      0.000     0.026    0.2085
   11/05/2014 05:15:00      0.000     0.025    0.2079
   11/05/2014 05:30:00      0.000     0.025    0.2072
   11/05/2014 05:45:00      0.000     0.025    0.2065
   11/05/2014 06:00:00      0.000     0.025    0.2058
   11/05/2014 06:15:00      0.000     0.025    0.2050
   11/05/2014 06:30:00      0.000     0.025    0.2042
   11/05/2014 06:45:00      0.000     0.025    0.2034
   11/05/2014 07:00:00      0.000     0.025    0.2026
   11/05/2014 07:15:00      0.000     0.025    0.2018
   11/05/2014 07:30:00      0.000     0.025    0.2010
   11/05/2014 07:45:00      0.000     0.024    0.2001
   11/05/2014 08:00:00      0.000     0.024    0.1992
   11/05/2014 08:15:00      0.000     0.024    0.1983
   11/05/2014 08:30:00      0.000     0.024    0.1974
   11/05/2014 08:45:00      0.000     0.024    0.1965
   11/05/2014 09:00:00      0.000     0.024    0.1956
   11/05/2014 09:15:00      0.000     0.024    0.1946
   11/05/2014 09:30:00      0.000     0.024    0.1937
   11/05/2014 09:45:00      0.000     0.024    0.1927
   11/05/2014 10:00:00      0.000     0.024    0.1917
   11/05/2014 10:15:00      0.000     0.024    0.1908
   11/05/2014 10:30:00      0.000     0.024    0.1898
   11/05/2014 10:45:00      0.000     0.023    0.1888
   11/05/2014 11:00:00      0.000     0.023    0.1878
   11/05/2014 11:15:00      0.000     0.023    0.1868
   11/05/2014 11:30:00      0.000     0.023    0.1857
   11/05/2014 11:45:00      0.000     0.023    0.1847
   11/05/2014 12:00:00      0.000     0.023    0.1837
   11/05/2014 12:15:00      0.000     0.023    0.1827
   11/05/2014 12:30:00      0.000     0.023    0.1816
   11/05/2014 12:45:00      0.000     0.023    0.1806
   11/05/2014 13:00:00      0.000     0.023    0.1796
   11/05/2014 13:15:00      0.000     0.023    0.1785
   11/05/2014 13:30:00      0.000     0.023    0.1775
   11/05/2014 13:45:00      0.000     0.023    0.1764
   11/05/2014 14:00:00      0.000     0.023    0.1754
   11/05/2014 14:15:00      0.000     0.022    0.1744
   11/05/2014 14:30:00      0.000     0.022    0.1733
   11/05/2014 14:45:00      0.000     0.022    0.1723
   11/05/2014 15:00:00      0.000     0.022    0.1712
   11/05/2014 15:15:00      0.000     0.022    0.1702
   11/05/2014 15:30:00      0.000     0.022    0.1691
   11/05/2014 15:45:00      0.000     0.022    0.1681
   11/05/2014 16:00:00      0.000     0.022    0.1670
   11/05/2014 16:15:00      0.000     0.022    0.1660
   11/05/2014 16:30:00      0.000     0.022    0.1650
   11/05/2014 16:45:00      0.000     0.022    0.1639
   11/05/2014 17:00:00      0.000     0.022    0.1629
   11/05/2014 17:15:00      0.000     0.022    0.1618
   11/05/2014 17:30:00      0.000     0.022    0.1608
   11/05/2014 17:45:00      0.000     0.022    0.1598
   11/05/2014 18:00:00      0.000     0.022    0.1587
   11/05/2014 18:15:00      0.000     0.021    0.1577
   11/05/2014 18:30:00      0.000     0.021    0.1567
   11/05/2014 18:45:00      0.000     0.021    0.1557
   11/05/2014 19:00:00      0.000     0.021    0.1546
   11/05/2014 19:15:00      0.000     0.021    0.1536
   11/05/2014 19:30:00      0.000     0.021    0.1526
   11/05/2014 19:45:00      0.000     0.021    0.1516
   11/05/2014 20:00:00      0.000     0.021    0.1506
   11/05/2014 20:15:00      0.000     0.021    0.1496
   11/05/2014 20:30:00      0.000     0.021    0.1486
   11/05/2014 20:45:00      0.000     0.021    0.1476
   11/05/2014 21:00:00      0.000     0.021    0.1466
   11/05/2014 21:15:00      0.000     0.021    0.1456
   11/05/2014 21:30:00      0.000     0.021    0.1447
   11/05/2014 21:45:00      0.000     0.021    0.1437
   11/05/2014 22:00:00      0.000     0.021    0.1427
   11/05/2014 22:15:00      0.000     0.021    0.1418
   11/05/2014 22:30:00      0.000     0.021    0.1408
   11/05/2014 22:45:00      0.000     0.021    0.1398
   11/05/2014 23:00:00      0.000     0.021    0.1389
   11/05/2014 23:15:00      0.000     0.020    0.1379
   11/05/2014 23:30:00      0.000     0.020    0.1370
   11/05/2014 23:45:00      0.000     0.020    0.1360
   11/06/2014 00:00:00      0.000     0.020    0.1351
   11/06/2014 00:15:00      0.000     0.020    0.1342
   11/06/2014 00:30:00      0.000     0.020    0.1332
   11/06/2014 00:45:00      0.000     0.020    0.1323
   11/06/2014 01:00:00      0.000     0.020    0.1314
   11/06/2014 01:15:00      0.000     0.020    0.1305
   11/06/2014 01:30:00      0.000     0.020    0.1296
   11/06/2014 01:45:00      0.000     0.020    0.1287
   11/06/2014 02:00:00      0.000     0.020    0.1278
   11/06/2014 02:15:00      0.000     0.020    0.1269
   11/06/2014 02:30:00      0.000     0.020    0.1260
   11/06/2014 02:45:00      0.000     0.020    0.1251
   11/06/2014 03:00:00      0.000     0.020    0.1243
   11/06/2014 03:15:00      0.000     0.020    0.1234
   11/06/2014 03:30:00      0.000     0.020    0.1225
   11/06/2014 03:45:00      0.000     0.020    0.1217
   11/06/2014 04:00:00      0.000     0.020    0.1208
   11/06/2014 04:15:00      0.000     0.020    0.1199
   11/06/2014 04:30:00      0.000     0.020    0.1191
   11/06/2014 04:45:00      0.000     0.020    0.1183
   11/06/2014 05:00:00      0.000     0.020    0.1174
   11/06/2014 05:15:00      0.000     0.020    0.1166
   11/06/2014 05:30:00      0.000     0.019    0.1158
   11/06/2014 05:45:00      0.000     0.019    0.1149
   11/06/2014 06:00:00      0.000     0.019    0.1141
   11/06/2014 06:15:00      0.000     0.019    0.1133
   11/06/2014 06:30:00      0.000     0.019    0.1125
   11/06/2014 06:45:00      0.000     0.019    0.1117
   11/06/2014 07:00:00      0.000     0.019    0.1109
   11/06/2014 07:15:00      0.000     0.019    0.1101
   11/06/2014 07:30:00      0.000     0.019    0.1093
   11/06/2014 07:45:00      0.000     0.019    0.1086
   11/06/2014 08:00:00      0.000     0.019    0.1078
   11/06/2014 08:15:00      0.000     0.019    0.1070
   11/06/2014 08:30:00      0.000     0.019    0.1062
   11/06/2014 08:45:00      0.000     0.019    0.1055
   11/06/2014 09:00:00      0.000     0.019    0.1047
   11/06/2014 09:15:00      0.000     0.019    0.1040
   11/06/2014 09:30:00      0.000     0.019    0.1032
   11/06/2014 09:45:00      0.000     0.019    0.1025
   11/06/2014 10:00:00      0.000     0.019    0.1017
   11/06/2014 10:15:00      0.000     0.019    0.1010
   11/06/2014 10:30:00      0.000     0.019    0.1003
   11/06/2014 10:45:00      0.000     0.019    0.0996
   11/06/2014 11:00:00      0.000     0.019    0.0988
   11/06/2014 11:15:00      0.000     0.019    0.0981
   11/06/2014 11:30:00      0.000     0.019    0.0974
   11/06/2014 11:45:00      0.000     0.019    0.0967
   11/06/2014 12:00:00      0.000     0.019    0.0960
   11/06/2014 12:15:00      0.000     0.019    0.0953
   11/06/2014 12:30:00      0.000     0.019    0.0946
   11/06/2014 12:45:00      0.000     0.019    0.0940
   11/06/2014 13:00:00      0.000     0.019    0.0933
   11/06/2014 13:15:00      0.000     0.018    0.0926
   11/06/2014 13:30:00      0.000     0.018    0.0919
   11/06/2014 13:45:00      0.000     0.018    0.0913
   11/06/2014 14:00:00      0.000     0.018    0.0906
   11/06/2014 14:15:00      0.000     0.018    0.0899
   11/06/2014 14:30:00      0.000     0.018    0.0893
   11/06/2014 14:45:00      0.000     0.018    0.0886
   11/06/2014 15:00:00      0.000     0.018    0.0880
   11/06/2014 15:15:00      0.000     0.018    0.0873
   11/06/2014 15:30:00      0.000     0.018    0.0867
   11/06/2014 15:45:00      0.000     0.018    0.0861
   11/06/2014 16:00:00      0.000     0.018    0.0855
   11/06/2014 16:15:00      0.000     0.018    0.0848
   11/06/2014 16:30:00      0.000     0.018    0.0842
   11/06/2014 16:45:00      0.000     0.018    0.0836
   11/06/2014 17:00:00      0.000     0.018    0.0830
   11/06/2014 17:15:00      0.000     0.018    0.0824
   11/06/2014 17:30:00      0.000     0.018    0.0818
   11/06/2014 17:45:00      0.000     0.018    0.0812
   11/06/2014 18:00:00      0.000     0.018    0.0806
   11/06/2014 18:15:00      0.000     0.018    0.0800
   11/06/2014 18:30:00      0.000     0.018    0.0794
   11/06/2014 18:45:00      0.000     0.018    0.0788
   11/06/2014 19:00:00      0.000     0.018    0.0782
   11/06/2014 19:15:00      0.000     0.018    0.0777
   11/06/2014 19:30:00      0.000     0.018    0.0771
   11/06/2014 19:45:00      0.000     0.018    0.0765
   11/06/2014 20:00:00      0.000     0.018    0.0760
   11/06/2014 20:15:00      0.000     0.018    0.0754
   11/06/2014 20:30:00      0.000     0.018    0.0749
   11/06/2014 20:45:00      0.000     0.018    0.0743
   11/06/2014 21:00:00      0.000     0.018    0.0738
   11/06/2014 21:15:00      0.000     0.018    0.0732
   11/06/2014 21:30:00      0.000     0.018    0.0727
   11/06/2014 21:45:00      0.000     0.018    0.0721
   11/06/2014 22:00:00      0.000     0.018    0.0716
   11/06/2014 22:15:00      0.000     0.018    0.0711
   11/06/2014 22:30:00      0.000     0.018    0.0706
   11/06/2014 22:45:00      0.000     0.018    0.0700
   11/06/2014 23:00:00      0.000     0.018    0.0695
   11/06/2014 23:15:00      0.000     0.017    0.0690
   11/06/2014 23:30:00      0.000     0.017    0.0685
   11/06/2014 23:45:00      0.000     0.017    0.0680
   11/07/2014 00:00:00      0.000     0.017    0.0675
   11/07/2014 00:15:00      0.000     0.017    0.0670
   11/07/2014 00:30:00      0.000     0.017    0.0665
   11/07/2014 00:45:00      0.000     0.017    0.0660
   11/07/2014 01:00:00      0.000     0.017    0.0655
   11/07/2014 01:15:00      0.000     0.017    0.0650
   11/07/2014 01:30:00      0.000     0.017    0.0645
   11/07/2014 01:45:00      0.000     0.017    0.0641
   11/07/2014 02:00:00      0.000     0.017    0.0636
   11/07/2014 02:15:00      0.000     0.017    0.0631
   11/07/2014 02:30:00      0.000     0.017    0.0626
   11/07/2014 02:45:00      0.000     0.017    0.0622
   11/07/2014 03:00:00      0.000     0.017    0.0617
   11/07/2014 03:15:00      0.000     0.017    0.0612
   11/07/2014 03:30:00      0.000     0.017    0.0608
   11/07/2014 03:45:00      0.000     0.017    0.0603
   11/07/2014 04:00:00      0.000     0.017    0.0599
   11/07/2014 04:15:00      0.000     0.017    0.0594
   11/07/2014 04:30:00      0.000     0.017    0.0590
   11/07/2014 04:45:00      0.000     0.017    0.0585
   11/07/2014 05:00:00      0.000     0.017    0.0581
   11/07/2014 05:15:00      0.000     0.017    0.0577
   11/07/2014 05:30:00      0.000     0.017    0.0572
   11/07/2014 05:45:00      0.000     0.017    0.0568
   11/07/2014 06:00:00      0.000     0.017    0.0564
   11/07/2014 06:15:00      0.000     0.017    0.0560
   11/07/2014 06:30:00      0.000     0.017    0.0555
   11/07/2014 06:45:00      0.000     0.017    0.0551
   11/07/2014 07:00:00      0.000     0.017    0.0547
   11/07/2014 07:15:00      0.000     0.017    0.0543
   11/07/2014 07:30:00      0.000     0.017    0.0539
   11/07/2014 07:45:00      0.000     0.017    0.0535
   11/07/2014 08:00:00      0.000     0.017    0.0531
   11/07/2014 08:15:00      0.000     0.017    0.0527
   11/07/2014 08:30:00      0.000     0.017    0.0523
   11/07/2014 08:45:00      0.000     0.017    0.0519
   11/07/2014 09:00:00      0.000     0.017    0.0515
   11/07/2014 09:15:00      0.000     0.017    0.0511
   11/07/2014 09:30:00      0.000     0.017    0.0507
   11/07/2014 09:45:00      0.000     0.017    0.0503
   11/07/2014 10:00:00      0.000     0.017    0.0499
   11/07/2014 10:15:00      0.000     0.017    0.0496
   11/07/2014 10:30:00      0.000     0.017    0.0492
   11/07/2014 10:45:00      0.000     0.017    0.0488
   11/07/2014 11:00:00      0.000     0.017    0.0484
   11/07/2014 11:15:00      0.000     0.017    0.0481
   11/07/2014 11:30:00      0.000     0.017    0.0477
   11/07/2014 11:45:00      0.000     0.017    0.0473
   11/07/2014 12:00:00      0.000     0.017    0.0470
  
  
  ************
  Node Results
  ************
  
  <<< Node 3 >>>
  ----------------------------------------------------------------
                           Inflow  Flooding     Depth      Head
  Date        Time            CFS       CFS      feet      feet
  ----------------------------------------------------------------
   11/04/2014 00:15:00      0.000     0.000     0.000     0.000
   11/04/2014 00:30:00      0.000     0.000     0.000     0.000
   11/04/2014 00:45:00      0.000     0.000     0.000     0.000
   11/04/2014 01:00:00      0.000     0.000     0.000     0.000
   11/04/2014 01:15:00      0.000     0.000     0.000     0.000
   11/04/2014 01:30:00      0.000     0.000     0.000     0.000
   11/04/2014 01:45:00      0.000     0.000     0.000     0.000
   11/04/2014 02:00:00      0.000     0.000     0.000     0.000
   11/04/2014 02:15:00      0.000     0.000     0.000     0.000
   11/04/2014 02:30:00      0.000     0.000     0.000     0.000
   11/04/2014 02:45:00      0.000     0.000     0.000     0.000
   11/04/2014 03:00:00      0.000     0.000     0.000     0.000
   11/04/2014 03:15:00      0.000     0.000     0.000     0.000
   11/04/2014 03:30:00      0.000     0.000     0.000     0.000
   11/04/2014 03:45:00      0.000     0.000     0.000     0.000
   11/04/2014 04:00:00      0.000     0.000     0.000     0.000
   11/04/2014 04:15:00      0.000     0.000     0.000     0.000
   11/04/2014 04:30:00      0.000     0.000     0.000     0.000
   11/04/2014 04:45:00      0.000     0.000     0.000     0.000
   11/04/2014 05:00:00      0.000     0.000     0.000     0.000
   11/04/2014 05:15:00      0.000     0.000     0.000     0.000
   11/04/2014 05:30:00      0.000     0.000     0.000     0.000
   11/04/2014 05:45:00      0.000     0.000     0.000     0.000
   11/04/2014 06:00:00      0.000     0.000     0.000     0.000
   11/04/2014 06:15:00      0.000     0.000     0.000     0.000
   11/04/2014 06:30:00      0.000     0.000     0.000     0.000
   11/04/2014 06:45:00      0.000     0.000     0.000     0.000
   11/04/2014 07:00:00      0.000     0.000     0.000     0.000
   11/04/2014 07:15:00      0.000     0.000     0.000     0.000
   11/04/2014 07:30:00      0.000     0.000     0.000     0.000
   11/04/2014 07:45:00      0.000     0.000     0.000     0.000
   11/04/2014 08:00:00      0.000     0.000     0.000     0.000
   11/04/2014 08:15:00      0.000     0.000     0.000     0.000
   11/04/2014 08:30:00      0.000     0.000     0.000     0.000
   11/04/2014 08:45:00      0.000     0.000     0.000     0.000
   11/04/2014 09:00:00      0.000     0.000     0.000     0.000
   11/04/2014 09:15:00      0.000     0.000     0.000     0.000
   11/04/2014 09:30:00      0.000     0.000     0.000     0.000
   11/04/2014 09:45:00      0.000     0.000     0.000     0.000
   11/04/2014 10:00:00      0.001     0.000     0.000     0.000
   11/04/2014 10:15:00      0.001     0.000     0.000     0.000
   11/04/2014 10:30:00      0.001     0.000     0.000     0.000
   11/04/2014 10:45:00      0.002     0.000     0.000     0.000
   11/04/2014 11:00:00      0.003     0.000     0.000     0.000
   11/04/2014 11:15:00      0.004     0.000     0.000     0.000
   11/04/2014 11:30:00      0.005     0.000     0.000     0.000
   11/04/2014 11:45:00      0.011     0.000     0.000     0.000
   11/04/2014 12:00:00      0.049     0.000     0.000     0.000
   11/04/2014 12:15:00      0.058     0.000     0.000     0.000
   11/04/2014 12:30:00      0.067     0.000     0.000     0.000
   11/04/2014 12:45:00      0.073     0.000     0.000     0.000
   11/04/2014 13:00:00      0.080     0.000     0.000     0.000
   11/04/2014 13:15:00      0.085     0.000     0.000     0.000
   11/04/2014 13:30:00      0.091     0.000     0.000     0.000
   11/04/2014 13:45:00      0.096     0.000     0.000     0.000
   11/04/2014 14:00:00      0.101     0.000     0.000     0.000
   11/04/2014 14:15:00      0.106     0.000     0.000     0.000
   11/04/2014 14:30:00      0.111     0.000     0.000     0.000
   11/04/2014 14:45:00      0.115     0.000     0.000     0.000
   11/04/2014 15:00:00      0.120     0.000     0.000     0.000
   11/04/2014 15:15:00      0.124     0.000     0.000     0.000
   11/04/2014 15:30:00      0.129     0.000     0.000     0.000
   11/04/2014 15:45:00      0.133     0.000     0.000     0.000
   11/04/2014 16:00:00      0.137     0.000     0.000     0.000
   11/04/2014 16:15:00      0.141     0.000     0.000     0.000
   11/04/2014 16:30:00      0.145     0.000     0.000     0.000
   11/04/2014 16:45:00      0.148     0.000     0.000     0.000
   11/04/2014 17:00:00      0.152     0.000     0.000     0.000
   11/04/2014 17:15:00      0.155     0.000     0.000     0.000
   11/04/2014 17:30:00      0.158     0.000     0.000     0.000
   11/04/2014 17:45:00      0.161     0.000     0.000     0.000
   11/04/2014 18:00:00      0.164     0.000     0.000     0.000
   11/04/2014 18:15:00      0.167     0.000     0.000     0.000
   11/04/2014 18:30:00      0.170     0.000     0.000     0.000
   11/04/2014 18:45:00      0.173     0.000     0.000     0.000
   11/04/2014 19:00:00      0.176     0.000     0.000     0.000
   11/04/2014 19:15:00      0.179     0.000     0.000     0.000
   11/04/2014 19:30:00      0.182     0.000     0.000     0.000
   11/04/2014 19:45:00      0.184     0.000     0.000     0.000
   11/04/2014 20:00:00      0.187     0.000     0.000     0.000
   11/04/2014 20:15:00      0.189     0.000     0.000     0.000
   11/04/2014 20:30:00      0.191     0.000     0.000     0.000
   11/04/2014 20:45:00      0.193     0.000     0.000     0.000
   11/04/2014 21:00:00      0.195     0.000     0.000     0.000
   11/04/2014 21:15:00      0.197     0.000     0.000     0.000
   11/04/2014 21:30:00      0.199     0.000     0.000     0.000
   11/04/2014 21:45:00      0.200     0.000     0.000     0.000
   11/04/2014 22:00:00      0.202     0.000     0.000     0.000
   11/04/2014 22:15:00      0.203     0.000     0.000     0.000
   11/04/2014 22:30:00      0.205     0.000     0.000     0.000
   11/04/2014 22:45:00      0.206     0.000     0.000     0.000
   11/04/2014 23:00:00      0.208     0.000     0.000     0.000
   11/04/2014 23:15:00      0.209     0.000     0.000     0.000
   11/04/2014 23:30:00      0.211     0.000     0.000     0.000
   11/04/2014 23:45:00      0.212     0.000     0.000     0.000
   11/05/2014 00:00:00      0.213     0.000     0.000     0.000
   11/05/2014 00:15:00      0.213     0.000     0.000     0.000
   11/05/2014 00:30:00      0.214     0.000     0.000     0.000
   11/05/2014 00:45:00      0.214     0.000     0.000     0.000
   11/05/2014 01:00:00      0.214     0.000     0.000     0.000
   11/05/2014 01:15:00      0.214     0.000     0.000     0.000
   11/05/2014 01:30:00      0.214     0.000     0.000     0.000
   11/05/2014 01:45:00      0.214     0.000     0.000     0.000
   11/05/2014 02:00:00      0.214     0.000     0.000     0.000
   11/05/2014 02:15:00      0.213     0.000     0.000     0.000
   11/05/2014 02:30:00      0.213     0.000     0.000     0.000
   11/05/2014 02:45:00      0.213     0.000     0.000     0.000
   11/05/2014 03:00:00      0.213     0.000     0.000     0.000
   11/05/2014 03:15:00      0.212     0.000     0.000     0.000
   11/05/2014 03:30:00      0.212     0.000     0.000     0.000
   11/05/2014 03:45:00      0.211     0.000     0.000     0.000
   11/05/2014 04:00:00      0.211     0.000     0.000     0.000
   11/05/2014 04:15:00      0.210     0.000     0.000     0.000
   11/05/2014 04:30:00      0.210     0.000     0.000     0.000
   11/05/2014 04:45:00      0.209     0.000     0.000     0.000
   11/05/2014 05:00:00      0.209     0.000     0.000     0.000
   11/05/2014 05:15:00      0.208     0.000     0.000     0.000
   11/05/2014 05:30:00      0.207     0.000     0.000     0.000
   11/05/2014 05:45:00      0.207     0.000     0.000     0.000
   11/05/2014 06:00:00      0.206     0.000     0.000     0.000
   11/05/2014 06:15:00      0.205     0.000     0.000     0.000
   11/05/2014 06:30:00      0.204     0.000     0.000     0.000
   11/05/2014 06:45:00      0.203     0.000     0.000     0.000
   11/05/2014 07:00:00      0.203     0.000     0.000     0.000
   11/05/2014 07:15:00      0.202     0.000     0.000     0.000
   11/05/2014 07:30:00      0.201     0.000     0.000     0.000
   11/05/2014 07:45:00      0.200     0.000     0.000     0.000
   11/05/2014 08:00:00      0.199     0.000     0.000     0.000
   11/05/2014 08:15:00      0.198     0.000     0.000     0.000
   11/05/2014 08:30:00      0.197     0.000     0.000     0.000
   11/05/2014 08:45:00      0.197     0.000     0.000     0.000
   11/05/2014 09:00:00      0.196     0.000     0.000     0.000
   11/05/2014 09:15:00      0.195     0.000     0.000     0.000
   11/05/2014 09:30:00      0.194     0.000     0.000     0.000
   11/05/2014 09:45:00      0.193     0.000     0.000     0.000
   11/05/2014 10:00:00      0.192     0.000     0.000     0.000
   11/05/2014 10:15:00      0.191     0.000     0.000     0.000
   11/05/2014 10:30:00      0.190     0.000     0.000     0.000
   11/05/2014 10:45:00      0.189     0.000     0.000     0.000
   11/05/2014 11:00:00      0.188     0.000     0.000     0.000
   11/05/2014 11:15:00      0.187     0.000     0.000     0.000
   11/05/2014 11:30:00      0.186     0.000     0.000     0.000
   11/05/2014 11:45:00      0.185     0.000     0.000     0.000
   11/05/2014 12:00:00      0.184     0.000     0.000     0.000
   11/05/2014 12:15:00      0.183     0.000     0.000     0.000
   11/05/2014 12:30:00      0.182     0.000     0.000     0.000
   11/05/2014 12:45:00      0.181     0.000     0.000     0.000
   11/05/2014 13:00:00      0.180     0.000     0.000     0.000
   11/05/2014 13:15:00      0.179     0.000     0.000     0.000
   11/05/2014 13:30:00      0.178     0.000     0.000     0.000
   11/05/2014 13:45:00      0.176     0.000     0.000     0.000
   11/05/2014 14:00:00      0.175     0.000     0.000     0.000
   11/05/2014 14:15:00      0.174     0.000     0.000     0.000
   11/05/2014 14:30:00      0.173     0.000     0.000     0.000
   11/05/2014 14:45:00      0.172     0.000     0.000     0.000
   11/05/2014 15:00:00      0.171     0.000     0.000     0.000
   11/05/2014 15:15:00      0.170     0.000     0.000     0.000
   11/05/2014 15:30:00      0.169     0.000     0.000     0.000
   11/05/2014 15:45:00      0.168     0.000     0.000     0.000
   11/05/2014 16:00:00      0.167     0.000     0.000     0.000
   11/05/2014 16:15:00      0.166     0.000     0.000     0.000
   11/05/2014 16:30:00      0.165     0.000     0.000     0.000
   11/05/2014 16:45:00      0.164     0.000     0.000     0.000
   11/05/2014 17:00:00      0.163     0.000     0.000     0.000
   11/05/2014 17:15:00      0.162     0.000     0.000     0.000
   11/05/2014 17:30:00      0.161     0.000     0.000     0.000
   11/05/2014 17:45:00      0.160     0.000     0.000     0.000
   11/05/2014 18:00:00      0.159     0.000     0.000     0.000
   11/05/2014 18:15:00      0.158     0.000     0.000     0.000
   11/05/2014 18:30:00      0.157     0.000     0.000     0.000
   11/05/2014 18:45:00      0.156     0.000     0.000     0.000
   11/05/2014 19:00:00      0.155     0.000     0.000     0.000
   11/05/2014 19:15:00      0.154     0.000     0.000     0.000
   11/05/2014 19:30:00      0.153     0.000     0.000     0.000
   11/05/2014 19:45:00      0.152     0.000     0.000     0.000
   11/05/2014 20:00:00      0.151     0.000     0.000     0.000
   11/05/2014 20:15:00      0.150     0.000     0.000     0.000
   11/05/2014 20:30:00      0.149     0.000     0.000     0.000
   11/05/2014 20:45:00      0.148     0.000     0.000     0.000
   11/05/2014 21:00:00      0.147     0.000     0.000     0.000
   11/05/2014 21:15:00      0.146     0.000     0.000     0.000
   11/05/2014 21:30:00      0.145     0.000     0.000     0.000
   11/05/2014 21:45:00      0.144     0.000     0.000     0.000
   11/05/2014 22:00:00      0.143     0.000     0.000     0.000
   11/05/2014 22:15:00      0.142     0.000     0.000     0.000
   11/05/2014 22:30:00      0.141     0.000     0.000     0.000
   11/05/2014 22:45:00      0.140     0.000     0.000     0.000
   11/05/2014 23:00:00      0.139     0.000     0.000     0.000
   11/05/2014 23:15:00      0.138     0.000     0.000     0.000
   11/05/2014 23:30:00      0.137     0.000     0.000     0.000
   11/05/2014 23:45:00      0.136     0.000     0.000     0.000
   11/06/2014 00:00:00      0.135     0.000     0.000     0.000
   11/06/2014 00:15:00      0.134     0.000     0.000     0.000
   11/06/2014 00:30:00      0.133     0.000     0.000     0.000
   11/06/2014 00:45:00      0.132     0.000     0.000     0.000
   11/06/2014 01:00:00      0.131     0.000     0.000     0.000
   11/06/2014 01:15:00      0.131     0.000     0.000     0.000
   11/06/2014 01:30:00      0.130     0.000     0.000     0.000
   11/06/2014 01:45:00      0.129     0.000     0.000     0.000
   11/06/2014 02:00:00      0.128     0.000     0.000     0.000
   11/06/2014 02:15:00      0.127     0.000     0.000     0.000
   11/06/2014 02:30:00      0.126     0.000     0.000     0.000
   11/06/2014 02:45:00      0.125     0.000     0.000     0.000
   11/06/2014 03:00:00      0.124     0.000     0.000     0.000
   11/06/2014 03:15:00      0.123     0.000     0.000     0.000
   11/06/2014 03:30:00      0.123     0.000     0.000     0.000
   11/06/2014 03:45:00      0.122     0.000     0.000     0.000
   11/06/2014 04:00:00      0.121     0.000     0.000     0.000
   11/06/2014 04:15:00      0.120     0.000     0.000     0.000
   11/06/2014 04:30:00      0.119     0.000     0.000     0.000
   11/06/2014 04:45:00      0.118     0.000     0.000     0.000
   11/06/2014 05:00:00      0.117     0.000     0.000     0.000
   11/06/2014 05:15:00      0.117     0.000     0.000     0.000
   11/06/2014 05:30:00      0.116     0.000     0.000     0.000
   11/06/2014 05:45:00      0.115     0.000     0.000     0.000
   11/06/2014 06:00:00      0.114     0.000     0.000     0.000
   11/06/2014 06:15:00      0.113     0.000     0.000     0.000
   11/06/2014 06:30:00      0.113     0.000     0.000     0.000
   11/06/2014 06:45:00      0.112     0.000     0.000     0.000
   11/06/2014 07:00:00      0.111     0.000     0.000     0.000
   11/06/2014 07:15:00      0.110     0.000     0.000     0.000
   11/06/2014 07:30:00      0.109     0.000     0.000     0.000
   11/06/2014 07:45:00      0.109     0.000     0.000     0.000
   11/06/2014 08:00:00      0.108     0.000     0.000     0.000
   11/06/2014 08:15:00      0.107     0.000     0.000     0.000
   11/06/2014 08:30:00      0.106     0.000     0.000     0.000
   11/06/2014 08:45:00      0.106     0.000     0.000     0.000
   11/06/2014 09:00:00      0.105     0.000     0.000     0.000
   11/06/2014 09:15:00      0.104     0.000     0.000     0.000
   11/06/2014 09:30:00      0.103     0.000     0.000     0.000
   11/06/2014 09:45:00      0.103     0.000     0.000     0.000
   11/06/2014 10:00:00      0.102     0.000     0.000     0.000
   11/06/2014 10:15:00      0.101     0.000     0.000     0.000
   11/06/2014 10:30:00      0.100     0.000     0.000     0.000
   11/06/2014 10:45:00      0.100     0.000     0.000     0.000
   11/06/2014 11:00:00      0.099     0.000     0.000     0.000
   11/06/2014 11:15:00      0.098     0.000     0.000     0.000
   11/06/2014 11:30:00      0.097     0.000     0.000     0.000
   11/06/2014 11:45:00      0.097     0.000     0.000     0.000
   11/06/2014 12:00:00      0.096     0.000     0.000     0.000
   11/06/2014 12:15:00      0.095     0.000     0.000     0.000
   11/06/2014 12:30:00      0.095     0.000     0.000     0.000
   11/06/2014 12:45:00      0.094     0.000     0.000     0.000
   11/06/2014 13:00:00      0.093     0.000     0.000     0.000
   11/06/2014 13:15:00      0.093     0.000     0.000     0.000
   11/06/2014 13:30:00      0.092     0.000     0.000     0.000
   11/06/2014 13:45:00      0.091     0.000     0.000     0.000
   11/06/2014 14:00:00      0.091     0.000     0.000     0.000
   11/06/2014 14:15:00      0.090     0.000     0.000     0.000
   11/06/2014 14:30:00      0.089     0.000     0.000     0.000
   11/06/2014 14:45:00      0.089     0.000     0.000     0.000
   11/06/2014 15:00:00      0.088     0.000     0.000     0.000
   11/06/2014 15:15:00      0.087     0.000     0.000     0.000
   11/06/2014 15:30:00      0.087     0.000     0.000     0.000
   11/06/2014 15:45:00      0.086     0.000     0.000     0.000
   11/06/2014 16:00:00      0.085     0.000     0.000     0.000
   11/06/2014 16:15:00      0.085     0.000     0.000     0.000
   11/06/2014 16:30:00      0.084     0.000     0.000     0.000
   11/06/2014 16:45:00      0.084     0.000     0.000     0.000
   11/06/2014 17:00:00      0.083     0.000     0.000     0.000
   11/06/2014 17:15:00      0.082     0.000     0.000     0.000
   11/06/2014 17:30:00      0.082     0.000     0.000     0.000
   11/06/2014 17:45:00      0.081     0.000     0.000     0.000
   11/06/2014 18:00:00      0.081     0.000     0.000     0.000
   11/06/2014 18:15:00      0.080     0.000     0.000     0.000
   11/06/2014 18:30:00      0.079     0.000     0.000     0.000
   11/06/2014 18:45:00      0.079     0.000     0.000     0.000
   11/06/2014 19:00:00      0.078     0.000     0.000     0.000
   11/06/2014 19:15:00      0.078     0.000     0.000     0.000
   11/06/2014 19:30:00      0.077     0.000     0.000     0.000
   11/06/2014 19:45:00      0.077     0.000     0.000     0.000
   11/06/2014 20:00:00      0.076     0.000     0.000     0.000
   11/06/2014 20:15:00      0.075     0.000     0.000     0.000
   11/06/2014 20:30:00      0.075     0.000     0.000     0.000
   11/06/2014 20:45:00      0.074     0.000     0.000     0.000
   11/06/2014 21:00:00      0.074     0.000     0.000     0.000
   11/06/2014 21:15:00      0.073     0.000     0.000     0.000
   11/06/2014 21:30:00      0.073     0.000     0.000     0.000
   11/06/2014 21:45:00      0.072     0.000     0.000     0.000
   11/06/2014 22:00:00      0.072     0.000     0.000     0.000
   11/06/2014 22:15:00      0.071     0.000     0.000     0.000
   11/06/2014 22:30:00      0.071     0.000     0.000     0.000
   11/06/2014 22:45:00      0.070     0.000     0.000     0.000
   11/06/2014 23:00:00      0.070     0.000     0.000     0.000
   11/06/2014 23:15:00      0.069     0.000     0.000     0.000
   11/06/2014 23:30:00      0.069     0.000     0.000     0.000
   11/06/2014 23:45:00      0.068     0.000     0.000     0.000
   11/07/2014 00:00:00      0.068     0.000     0.000     0.000
   11/07/2014 00:15:00      0.067     0.000     0.000     0.000
   11/07/2014 00:30:00      0.067     0.000     0.000     0.000
   11/07/2014 00:45:00      0.066     0.000     0.000     0.000
   11/07/2014 01:00:00      0.066     0.000     0.000     0.000
   11/07/2014 01:15:00      0.065     0.000     0.000     0.000
   11/07/2014 01:30:00      0.065     0.000     0.000     0.000
   11/07/2014 01:45:00      0.064     0.000     0.000     0.000
   11/07/2014 02:00:00      0.064     0.000     0.000     0.000
   11/07/2014 02:15:00      0.063     0.000     0.000     0.000
   11/07/2014 02:30:00      0.063     0.000     0.000     0.000
   11/07/2014 02:45:00      0.062     0.000     0.000     0.000
   11/07/2014 03:00:00      0.062     0.000     0.000     0.000
   11/07/2014 03:15:00      0.061     0.000     0.000     0.000
   11/07/2014 03:30:00      0.061     0.000     0.000     0.000
   11/07/2014 03:45:00      0.060     0.000     0.000     0.000
   11/07/2014 04:00:00      0.060     0.000     0.000     0.000
   11/07/2014 04:15:00      0.059     0.000     0.000     0.000
   11/07/2014 04:30:00      0.059     0.000     0.000     0.000
   11/07/2014 04:45:00      0.059     0.000     0.000     0.000
   11/07/2014 05:00:00      0.058     0.000     0.000     0.000
   11/07/2014 05:15:00      0.058     0.000     0.000     0.000
   11/07/2014 05:30:00      0.057     0.000     0.000     0.000
   11/07/2014 05:45:00      0.057     0.000     0.000     0.000
   11/07/2014 06:00:00      0.056     0.000     0.000     0.000
   11/07/2014 06:15:00      0.056     0.000     0.000     0.000
   11/07/2014 06:30:00      0.056     0.000     0.000     0.000
   11/07/2014 06:45:00      0.055     0.000     0.000     0.000
   11/07/2014 07:00:00      0.055     0.000     0.000     0.000
   11/07/2014 07:15:00      0.054     0.000     0.000     0.000
   11/07/2014 07:30:00      0.054     0.000     0.000     0.000
   11/07/2014 07:45:00      0.053     0.000     0.000     0.000
   11/07/2014 08:00:00      0.053     0.000     0.000     0.000
   11/07/2014 08:15:00      0.053     0.000     0.000     0.000
   11/07/2014 08:30:00      0.052     0.000     0.000     0.000
   11/07/2014 08:45:00      0.052     0.000     0.000     0.000
   11/07/2014 09:00:00      0.051     0.000     0.000     0.000
   11/07/2014 09:15:00      0.051     0.000     0.000     0.000
   11/07/2014 09:30:00      0.051     0.000     0.000     0.000
   11/07/2014 09:45:00      0.050     0.000     0.000     0.000
   11/07/2014 10:00:00      0.050     0.000     0.000     0.000
   11/07/2014 10:15:00      0.050     0.000     0.000     0.000
   11/07/2014 10:30:00      0.049     0.000     0.000     0.000
   11/07/2014 10:45:00      0.049     0.000     0.000     0.000
   11/07/2014 11:00:00      0.048     0.000     0.000     0.000
   11/07/2014 11:15:00      0.048     0.000     0.000     0.000
   11/07/2014 11:30:00      0.048     0.000     0.000     0.000
   11/07/2014 11:45:00      0.047     0.000     0.000     0.000
   11/07/2014 12:00:00      0.047     0.000     0.000     0.000
  
  
  **************************        Volume         Depth
  Runoff Quantity Continuity     acre-feet        inches
  **************************     ---------       -------
  Total Precipitation ......         1.750         3.000
  Evaporation Loss .........         0.000         0.000
  Infiltration Loss ........         0.526         0.902
  Surface Runoff ...........         0.764         1.310
  Final Storage ............         0.460         0.788
  Continuity Error (%) .....        -0.009
  
  
  **************************        Volume        Volume
  Flow Routing Continuity        acre-feet      10^6 gal
  **************************     ---------     ---------
  Dry Weather Inflow .......         0.000         0.000
  Wet Weather Inflow .......         0.764         0.249
  Groundwater Inflow .......         0.000         0.000
  RDII Inflow ..............         0.000         0.000
  External Inflow ..........         0.000         0.000
  External Outflow .........         0.764         0.249
  Flooding Loss ............         0.000         0.000
  Evaporation Loss .........         0.000         0.000
  Exfiltration Loss ........         0.000         0.000
  Initial Stored Volume ....         0.000         0.000
  Final Stored Volume ......         0.000         0.000
  Continuity Error (%) .....         0.000
  
  
  ***************************
  Subcatchment Runoff Summary
  ***************************
  
  ------------------------------------------------------------------------------------------------------------------------------
                            Total      Total      Total      Total     Imperv       Perv      Total       Total     Peak  Runoff
                           Precip      Runon       Evap      Infil     Runoff     Runoff     Runoff      Runoff   Runoff   Coeff
  Subcatchment                 in         in         in         in         in         in         in    10^6 gal      CFS
  ------------------------------------------------------------------------------------------------------------------------------
  S1                         3.00       0.00       0.00       0.00       2.79       0.00       2.79        0.30     0.74   0.930
  S2                         3.00       3.72       0.00       2.11       0.00       3.06       3.06        0.25     0.21   0.455
  

  Analysis begun on:  Fri Oct 11 21:26:08 2019
  Analysis ended on:  Fri Oct 11 21:26:08 2019
  Total elapsed time: < 1 sec